REMARK INTER + INTRA:          -6.923
REMARK INTER:                  -6.828
REMARK INTRA:                  -0.095
REMARK UNBOUND:                -0.200
REMARK  1 active torsions:
REMARK  status: ('A' for Active; 'I' for Inactive)
REMARK    1  A    between atoms: C7_7  and  C4_4 
ROOT
ATOM      1  C1  LG1 d5015      26.632  25.768  72.140  0.00  0.00    -0.004 C 
ATOM      2  C2  LG1 d5015      26.230  26.478  73.438  0.00  0.00    -0.001 C 
ATOM      3  C3  LG1 d5015      26.516  25.615  74.723  0.00  0.00    -0.030 C 
ATOM      4  C4  LG1 d5015      26.079  26.657  75.806  0.00  0.00     0.063 C 
ATOM      5  C5  LG1 d5015      26.594  28.039  75.271  0.00  0.00     0.013 C 
ATOM      6  C6  LG1 d5015      26.893  27.844  73.740  0.00  0.00     0.006 C 
ATOM      7  C9  LG1 d5015      28.033  25.262  74.912  0.00  0.00     0.016 C 
ATOM      8  C10 LG1 d5015      25.624  24.359  74.597  0.00  0.00     0.011 C 
ATOM      9  C11 LG1 d5015      25.942  23.574  73.294  0.00  0.00     0.007 C 
ATOM     10  C12 LG1 d5015      25.788  24.455  72.027  0.00  0.00     0.002 C 
ATOM     11  C13 LG1 d5015      26.098  23.641  70.717  0.00  0.00    -0.016 C 
ATOM     12  C14 LG1 d5015      25.939  24.606  69.473  0.00  0.00    -0.068 C 
ATOM     13  C15 LG1 d5015      25.270  24.289  68.379  0.00  0.00     0.053 C 
ATOM     14  C16 LG1 d5015      24.722  22.957  68.179  0.00  0.00     0.149 C 
ATOM     15  C17 LG1 d5015      24.995  21.856  69.200  0.00  0.00     0.084 C 
ATOM     16  C18 LG1 d5015      25.077  22.476  70.617  0.00  0.00     0.022 C 
ATOM     17  O2  LG1 d5015      24.090  22.685  67.143  0.00  0.00    -0.293 OA
ATOM     18  C19 LG1 d5015      26.571  25.991  69.567  0.00  0.00     0.035 C 
ATOM     19  C20 LG1 d5015      26.296  26.668  70.924  0.00  0.00     0.010 C 
ATOM     20  C21 LG1 d5015      27.579  23.102  70.674  0.00  0.00     0.020 C 
ENDROOT
BRANCH   4  21
ATOM     21  C7  LG1 d5015      26.505  26.314  77.243  0.00  0.00     0.128 C 
ATOM     22  O1  LG1 d5015      27.250  27.053  77.851  0.00  0.00    -0.298 OA
ATOM     23  C8  LG1 d5015      25.989  25.073  77.885  0.00  0.00     0.091 C 
ENDBRANCH   4  21
TORSDOF 1
ENDMDL
