REMARK INTER + INTRA:          -6.838
REMARK INTER:                  -6.637
REMARK INTRA:                  -0.200
REMARK UNBOUND:                -0.200
REMARK  1 active torsions:
REMARK  status: ('A' for Active; 'I' for Inactive)
REMARK    1  A    between atoms: C7_7  and  C4_4 
ROOT
ATOM      1  C1  LG1 d5015      23.465  24.624  69.784  0.00  0.00    -0.004 C 
ATOM      2  C2  LG1 d5015      22.828  25.930  69.299  0.00  0.00    -0.001 C 
ATOM      3  C3  LG1 d5015      23.081  26.206  67.770  0.00  0.00    -0.030 C 
ATOM      4  C4  LG1 d5015      22.243  27.521  67.628  0.00  0.00     0.063 C 
ATOM      5  C5  LG1 d5015      20.965  27.284  68.507  0.00  0.00     0.013 C 
ATOM      6  C6  LG1 d5015      21.296  26.084  69.466  0.00  0.00     0.006 C 
ATOM      7  C9  LG1 d5015      22.488  25.098  66.830  0.00  0.00     0.016 C 
ATOM      8  C10 LG1 d5015      24.610  26.362  67.616  0.00  0.00     0.011 C 
ATOM      9  C11 LG1 d5015      25.356  25.088  68.103  0.00  0.00     0.007 C 
ATOM     10  C12 LG1 d5015      25.011  24.733  69.572  0.00  0.00     0.002 C 
ATOM     11  C13 LG1 d5015      25.787  23.451  70.053  0.00  0.00    -0.016 C 
ATOM     12  C14 LG1 d5015      25.372  23.142  71.549  0.00  0.00    -0.068 C 
ATOM     13  C15 LG1 d5015      26.237  22.867  72.508  0.00  0.00     0.053 C 
ATOM     14  C16 LG1 d5015      27.656  22.703  72.232  0.00  0.00     0.149 C 
ATOM     15  C17 LG1 d5015      28.166  22.750  70.795  0.00  0.00     0.084 C 
ATOM     16  C18 LG1 d5015      27.309  23.747  69.976  0.00  0.00     0.022 C 
ATOM     17  O2  LG1 d5015      28.452  22.451  73.154  0.00  0.00    -0.293 OA
ATOM     18  C19 LG1 d5015      23.888  23.199  71.897  0.00  0.00     0.035 C 
ATOM     19  C20 LG1 d5015      23.194  24.438  71.299  0.00  0.00     0.010 C 
ATOM     20  C21 LG1 d5015      25.415  22.168  69.215  0.00  0.00     0.020 C 
ENDROOT
BRANCH   4  21
ATOM     21  C7  LG1 d5015      21.967  27.959  66.180  0.00  0.00     0.128 C 
ATOM     22  O1  LG1 d5015      22.871  28.368  65.484  0.00  0.00    -0.298 OA
ATOM     23  C8  LG1 d5015      20.582  27.869  65.638  0.00  0.00     0.091 C 
ENDBRANCH   4  21
TORSDOF 1
ENDMDL
