REMARK INTER + INTRA:          -7.156
REMARK INTER:                  -7.009
REMARK INTRA:                  -0.147
REMARK UNBOUND:                -0.204
REMARK  1 active torsions:
REMARK  status: ('A' for Active; 'I' for Inactive)
REMARK    1  A    between atoms: C7_7  and  C4_4 
ROOT
ATOM      1  C1  LG1 d5015      24.897  23.782  70.288  0.00  0.00    -0.004 C 
ATOM      2  C2  LG1 d5015      26.259  23.642  70.977  0.00  0.00    -0.001 C 
ATOM      3  C3  LG1 d5015      26.291  24.289  72.412  0.00  0.00    -0.030 C 
ATOM      4  C4  LG1 d5015      27.749  23.888  72.816  0.00  0.00     0.063 C 
ATOM      5  C5  LG1 d5015      27.940  22.434  72.260  0.00  0.00     0.013 C 
ATOM      6  C6  LG1 d5015      26.809  22.211  71.191  0.00  0.00     0.006 C 
ATOM      7  C9  LG1 d5015      25.269  23.640  73.410  0.00  0.00     0.016 C 
ATOM      8  C10 LG1 d5015      26.041  25.799  72.201  0.00  0.00     0.011 C 
ATOM      9  C11 LG1 d5015      24.684  26.048  71.486  0.00  0.00     0.007 C 
ATOM     10  C12 LG1 d5015      24.592  25.308  70.127  0.00  0.00     0.002 C 
ATOM     11  C13 LG1 d5015      23.218  25.584  69.411  0.00  0.00    -0.016 C 
ATOM     12  C14 LG1 d5015      23.191  24.784  68.046  0.00  0.00    -0.068 C 
ATOM     13  C15 LG1 d5015      22.817  25.311  66.894  0.00  0.00     0.053 C 
ATOM     14  C16 LG1 d5015      22.273  26.657  66.812  0.00  0.00     0.149 C 
ATOM     15  C17 LG1 d5015      22.031  27.463  68.084  0.00  0.00     0.084 C 
ATOM     16  C18 LG1 d5015      23.113  27.108  69.134  0.00  0.00     0.022 C 
ATOM     17  O2  LG1 d5015      21.934  27.134  65.714  0.00  0.00    -0.293 OA
ATOM     18  C19 LG1 d5015      23.657  23.332  68.067  0.00  0.00     0.035 C 
ATOM     19  C20 LG1 d5015      24.955  23.145  68.876  0.00  0.00     0.010 C 
ATOM     20  C21 LG1 d5015      21.984  25.073  70.249  0.00  0.00     0.020 C 
ENDROOT
BRANCH   4  21
ATOM     21  C7  LG1 d5015      28.079  24.065  74.308  0.00  0.00     0.128 C 
ATOM     22  O1  LG1 d5015      28.225  23.094  75.019  0.00  0.00    -0.298 OA
ATOM     23  C8  LG1 d5015      28.224  25.436  74.870  0.00  0.00     0.091 C 
ENDBRANCH   4  21
TORSDOF 1
ENDMDL
