MODEL 1
REMARK VINA RESULT:    -7.491      0.000      0.000
REMARK INTER + INTRA:          -8.133
REMARK INTER:                  -7.937
REMARK INTRA:                  -0.196
REMARK UNBOUND:                -0.204
REMARK  1 active torsions:
REMARK  status: ('A' for Active; 'I' for Inactive)
REMARK    1  A    between atoms: C7_7  and  C4_4 
ROOT
ATOM      1  C1  LG1 d5015      26.181  23.728  70.825  0.00  0.00    -0.004 C 
ATOM      2  C2  LG1 d5015      25.072  23.600  69.775  0.00  0.00    -0.001 C 
ATOM      3  C3  LG1 d5015      24.006  24.755  69.864  0.00  0.00    -0.030 C 
ATOM      4  C4  LG1 d5015      23.124  24.354  68.636  0.00  0.00     0.063 C 
ATOM      5  C5  LG1 d5015      24.142  23.879  67.541  0.00  0.00     0.013 C 
ATOM      6  C6  LG1 d5015      25.495  23.586  68.286  0.00  0.00     0.006 C 
ATOM      7  C9  LG1 d5015      24.615  26.184  69.633  0.00  0.00     0.016 C 
ATOM      8  C10 LG1 d5015      23.340  24.610  71.250  0.00  0.00     0.011 C 
ATOM      9  C11 LG1 d5015      24.390  24.705  72.391  0.00  0.00     0.007 C 
ATOM     10  C12 LG1 d5015      25.518  23.652  72.240  0.00  0.00     0.002 C 
ATOM     11  C13 LG1 d5015      26.563  23.753  73.411  0.00  0.00    -0.016 C 
ATOM     12  C14 LG1 d5015      27.688  22.664  73.179  0.00  0.00    -0.068 C 
ATOM     13  C15 LG1 d5015      28.129  21.852  74.122  0.00  0.00     0.053 C 
ATOM     14  C16 LG1 d5015      27.694  21.981  75.505  0.00  0.00     0.149 C 
ATOM     15  C17 LG1 d5015      26.782  23.133  75.915  0.00  0.00     0.084 C 
ATOM     16  C18 LG1 d5015      25.824  23.474  74.747  0.00  0.00     0.022 C 
ATOM     17  O2  LG1 d5015      28.118  21.199  76.374  0.00  0.00    -0.293 OA
ATOM     18  C19 LG1 d5015      28.266  22.532  71.774  0.00  0.00     0.035 C 
ATOM     19  C20 LG1 d5015      27.172  22.543  70.688  0.00  0.00     0.010 C 
ATOM     20  C21 LG1 d5015      27.298  25.148  73.450  0.00  0.00     0.020 C 
ENDROOT
BRANCH   4  21
ATOM     21  C7  LG1 d5015      22.128  25.432  68.175  0.00  0.00     0.128 C 
ATOM     22  O1  LG1 d5015      21.245  25.804  68.918  0.00  0.00    -0.298 OA
ATOM     23  C8  LG1 d5015      22.260  26.019  66.813  0.00  0.00     0.091 C 
ENDBRANCH   4  21
TORSDOF 1
ENDMDL
MODEL 2
REMARK VINA RESULT:    -6.568      1.523      7.048
REMARK INTER + INTRA:          -7.156
REMARK INTER:                  -7.009
REMARK INTRA:                  -0.147
REMARK UNBOUND:                -0.204
REMARK  1 active torsions:
REMARK  status: ('A' for Active; 'I' for Inactive)
REMARK    1  A    between atoms: C7_7  and  C4_4 
ROOT
ATOM      1  C1  LG1 d5015      24.897  23.782  70.288  0.00  0.00    -0.004 C 
ATOM      2  C2  LG1 d5015      26.259  23.642  70.977  0.00  0.00    -0.001 C 
ATOM      3  C3  LG1 d5015      26.291  24.289  72.412  0.00  0.00    -0.030 C 
ATOM      4  C4  LG1 d5015      27.749  23.888  72.816  0.00  0.00     0.063 C 
ATOM      5  C5  LG1 d5015      27.940  22.434  72.260  0.00  0.00     0.013 C 
ATOM      6  C6  LG1 d5015      26.809  22.211  71.191  0.00  0.00     0.006 C 
ATOM      7  C9  LG1 d5015      25.269  23.640  73.410  0.00  0.00     0.016 C 
ATOM      8  C10 LG1 d5015      26.041  25.799  72.201  0.00  0.00     0.011 C 
ATOM      9  C11 LG1 d5015      24.684  26.048  71.486  0.00  0.00     0.007 C 
ATOM     10  C12 LG1 d5015      24.592  25.308  70.127  0.00  0.00     0.002 C 
ATOM     11  C13 LG1 d5015      23.218  25.584  69.411  0.00  0.00    -0.016 C 
ATOM     12  C14 LG1 d5015      23.191  24.784  68.046  0.00  0.00    -0.068 C 
ATOM     13  C15 LG1 d5015      22.817  25.311  66.894  0.00  0.00     0.053 C 
ATOM     14  C16 LG1 d5015      22.273  26.657  66.812  0.00  0.00     0.149 C 
ATOM     15  C17 LG1 d5015      22.031  27.463  68.084  0.00  0.00     0.084 C 
ATOM     16  C18 LG1 d5015      23.113  27.108  69.134  0.00  0.00     0.022 C 
ATOM     17  O2  LG1 d5015      21.934  27.134  65.714  0.00  0.00    -0.293 OA
ATOM     18  C19 LG1 d5015      23.657  23.332  68.067  0.00  0.00     0.035 C 
ATOM     19  C20 LG1 d5015      24.955  23.145  68.876  0.00  0.00     0.010 C 
ATOM     20  C21 LG1 d5015      21.984  25.073  70.249  0.00  0.00     0.020 C 
ENDROOT
BRANCH   4  21
ATOM     21  C7  LG1 d5015      28.079  24.065  74.308  0.00  0.00     0.128 C 
ATOM     22  O1  LG1 d5015      28.225  23.094  75.019  0.00  0.00    -0.298 OA
ATOM     23  C8  LG1 d5015      28.224  25.436  74.870  0.00  0.00     0.091 C 
ENDBRANCH   4  21
TORSDOF 1
ENDMDL
MODEL 3
REMARK VINA RESULT:    -6.353      2.266      6.995
REMARK INTER + INTRA:          -6.929
REMARK INTER:                  -6.764
REMARK INTRA:                  -0.165
REMARK UNBOUND:                -0.204
REMARK  1 active torsions:
REMARK  status: ('A' for Active; 'I' for Inactive)
REMARK    1  A    between atoms: C7_7  and  C4_4 
ROOT
ATOM      1  C1  LG1 d5015      26.373  24.549  70.497  0.00  0.00    -0.004 C 
ATOM      2  C2  LG1 d5015      27.278  23.950  71.578  0.00  0.00    -0.001 C 
ATOM      3  C3  LG1 d5015      26.738  24.196  73.037  0.00  0.00    -0.030 C 
ATOM      4  C4  LG1 d5015      27.830  23.401  73.827  0.00  0.00     0.063 C 
ATOM      5  C5  LG1 d5015      28.112  22.125  72.959  0.00  0.00     0.013 C 
ATOM      6  C6  LG1 d5015      27.547  22.426  71.523  0.00  0.00     0.006 C 
ATOM      7  C9  LG1 d5015      25.328  23.557  73.295  0.00  0.00     0.016 C 
ATOM      8  C10 LG1 d5015      26.743  25.728  73.236  0.00  0.00     0.011 C 
ATOM      9  C11 LG1 d5015      25.863  26.436  72.169  0.00  0.00     0.007 C 
ATOM     10  C12 LG1 d5015      26.308  26.095  70.723  0.00  0.00     0.002 C 
ATOM     11  C13 LG1 d5015      25.417  26.833  69.656  0.00  0.00    -0.016 C 
ATOM     12  C14 LG1 d5015      25.917  26.423  68.211  0.00  0.00    -0.068 C 
ATOM     13  C15 LG1 d5015      26.133  27.289  67.237  0.00  0.00     0.053 C 
ATOM     14  C16 LG1 d5015      25.804  28.698  67.382  0.00  0.00     0.149 C 
ATOM     15  C17 LG1 d5015      25.104  29.194  68.644  0.00  0.00     0.084 C 
ATOM     16  C18 LG1 d5015      25.581  28.362  69.860  0.00  0.00     0.022 C 
ATOM     17  O2  LG1 d5015      26.023  29.495  66.453  0.00  0.00    -0.293 OA
ATOM     18  C19 LG1 d5015      26.192  24.946  67.950  0.00  0.00     0.035 C 
ATOM     19  C20 LG1 d5015      26.984  24.287  69.096  0.00  0.00     0.010 C 
ATOM     20  C21 LG1 d5015      23.900  26.409  69.737  0.00  0.00     0.020 C 
ENDROOT
BRANCH   4  21
ATOM     21  C7  LG1 d5015      27.488  23.124  75.301  0.00  0.00     0.128 C 
ATOM     22  O1  LG1 d5015      27.242  24.042  76.053  0.00  0.00    -0.298 OA
ATOM     23  C8  LG1 d5015      27.455  21.720  75.795  0.00  0.00     0.091 C 
ENDBRANCH   4  21
TORSDOF 1
ENDMDL
MODEL 4
REMARK VINA RESULT:    -6.338      2.502      6.721
REMARK INTER + INTRA:          -6.912
REMARK INTER:                  -6.876
REMARK INTRA:                  -0.036
REMARK UNBOUND:                -0.204
REMARK  1 active torsions:
REMARK  status: ('A' for Active; 'I' for Inactive)
REMARK    1  A    between atoms: C7_7  and  C4_4 
ROOT
ATOM      1  C1  LG1 d5015      26.639  25.778  72.134  0.00  0.00    -0.004 C 
ATOM      2  C2  LG1 d5015      26.239  26.481  73.435  0.00  0.00    -0.001 C 
ATOM      3  C3  LG1 d5015      26.536  25.616  74.717  0.00  0.00    -0.030 C 
ATOM      4  C4  LG1 d5015      26.097  26.652  75.805  0.00  0.00     0.063 C 
ATOM      5  C5  LG1 d5015      26.601  28.039  75.271  0.00  0.00     0.013 C 
ATOM      6  C6  LG1 d5015      26.894  27.851  73.739  0.00  0.00     0.006 C 
ATOM      7  C9  LG1 d5015      28.057  25.273  74.898  0.00  0.00     0.016 C 
ATOM      8  C10 LG1 d5015      25.653  24.355  74.591  0.00  0.00     0.011 C 
ATOM      9  C11 LG1 d5015      25.969  23.576  73.284  0.00  0.00     0.007 C 
ATOM     10  C12 LG1 d5015      25.804  24.460  72.020  0.00  0.00     0.002 C 
ATOM     11  C13 LG1 d5015      26.113  23.651  70.706  0.00  0.00    -0.016 C 
ATOM     12  C14 LG1 d5015      25.942  24.619  69.466  0.00  0.00    -0.068 C 
ATOM     13  C15 LG1 d5015      25.271  24.301  68.374  0.00  0.00     0.053 C 
ATOM     14  C16 LG1 d5015      24.731  22.966  68.173  0.00  0.00     0.149 C 
ATOM     15  C17 LG1 d5015      25.016  21.864  69.189  0.00  0.00     0.084 C 
ATOM     16  C18 LG1 d5015      25.100  22.480  70.608  0.00  0.00     0.022 C 
ATOM     17  O2  LG1 d5015      24.096  22.692  67.139  0.00  0.00    -0.293 OA
ATOM     18  C19 LG1 d5015      26.565  26.008  69.562  0.00  0.00     0.035 C 
ATOM     19  C20 LG1 d5015      26.292  26.679  70.922  0.00  0.00     0.010 C 
ATOM     20  C21 LG1 d5015      27.598  23.123  70.655  0.00  0.00     0.020 C 
ENDROOT
BRANCH   4  21
ATOM     21  C7  LG1 d5015      26.532  26.308  77.239  0.00  0.00     0.128 C 
ATOM     22  O1  LG1 d5015      27.201  27.091  77.878  0.00  0.00    -0.298 OA
ATOM     23  C8  LG1 d5015      26.118  25.010  77.839  0.00  0.00     0.091 C 
ENDBRANCH   4  21
TORSDOF 1
ENDMDL
MODEL 5
REMARK VINA RESULT:    -6.298      2.005      3.918
REMARK INTER + INTRA:          -6.870
REMARK INTER:                  -6.666
REMARK INTRA:                  -0.204
REMARK UNBOUND:                -0.204
REMARK  1 active torsions:
REMARK  status: ('A' for Active; 'I' for Inactive)
REMARK    1  A    between atoms: C7_7  and  C4_4 
ROOT
ATOM      1  C1  LG1 d5015      23.481  24.628  69.840  0.00  0.00    -0.004 C 
ATOM      2  C2  LG1 d5015      22.863  25.940  69.347  0.00  0.00    -0.001 C 
ATOM      3  C3  LG1 d5015      23.121  26.203  67.816  0.00  0.00    -0.030 C 
ATOM      4  C4  LG1 d5015      22.303  27.529  67.665  0.00  0.00     0.063 C 
ATOM      5  C5  LG1 d5015      21.021  27.317  68.545  0.00  0.00     0.013 C 
ATOM      6  C6  LG1 d5015      21.334  26.118  69.512  0.00  0.00     0.006 C 
ATOM      7  C9  LG1 d5015      22.512  25.098  66.883  0.00  0.00     0.016 C 
ATOM      8  C10 LG1 d5015      24.652  26.335  67.661  0.00  0.00     0.011 C 
ATOM      9  C11 LG1 d5015      25.379  25.053  68.157  0.00  0.00     0.007 C 
ATOM     10  C12 LG1 d5015      25.028  24.713  69.629  0.00  0.00     0.002 C 
ATOM     11  C13 LG1 d5015      25.784  23.422  70.118  0.00  0.00    -0.016 C 
ATOM     12  C14 LG1 d5015      25.364  23.129  71.615  0.00  0.00    -0.068 C 
ATOM     13  C15 LG1 d5015      26.225  22.847  72.577  0.00  0.00     0.053 C 
ATOM     14  C16 LG1 d5015      27.641  22.660  72.303  0.00  0.00     0.149 C 
ATOM     15  C17 LG1 d5015      28.152  22.691  70.866  0.00  0.00     0.084 C 
ATOM     16  C18 LG1 d5015      27.310  23.695  70.040  0.00  0.00     0.022 C 
ATOM     17  O2  LG1 d5015      28.433  22.402  73.227  0.00  0.00    -0.293 OA
ATOM     18  C19 LG1 d5015      23.882  23.211  71.963  0.00  0.00     0.035 C 
ATOM     19  C20 LG1 d5015      23.206  24.456  71.356  0.00  0.00     0.010 C 
ATOM     20  C21 LG1 d5015      25.393  22.140  69.288  0.00  0.00     0.020 C 
ENDROOT
BRANCH   4  21
ATOM     21  C7  LG1 d5015      22.033  27.961  66.214  0.00  0.00     0.128 C 
ATOM     22  O1  LG1 d5015      22.947  28.332  65.509  0.00  0.00    -0.298 OA
ATOM     23  C8  LG1 d5015      20.644  27.913  65.680  0.00  0.00     0.091 C 
ENDBRANCH   4  21
TORSDOF 1
ENDMDL
