MODEL 1
REMARK VINA RESULT:    -7.484      0.000      0.000
REMARK INTER + INTRA:          -8.122
REMARK INTER:                  -7.924
REMARK INTRA:                  -0.198
REMARK UNBOUND:                -0.200
REMARK  1 active torsions:
REMARK  status: ('A' for Active; 'I' for Inactive)
REMARK    1  A    between atoms: C7_7  and  C4_4 
ROOT
ATOM      1  C1  LG1 d5015      26.179  23.712  70.821  0.00  0.00    -0.004 C 
ATOM      2  C2  LG1 d5015      25.067  23.589  69.774  0.00  0.00    -0.001 C 
ATOM      3  C3  LG1 d5015      24.003  24.745  69.869  0.00  0.00    -0.030 C 
ATOM      4  C4  LG1 d5015      23.116  24.347  68.642  0.00  0.00     0.063 C 
ATOM      5  C5  LG1 d5015      24.131  23.873  67.544  0.00  0.00     0.013 C 
ATOM      6  C6  LG1 d5015      25.486  23.577  68.284  0.00  0.00     0.006 C 
ATOM      7  C9  LG1 d5015      24.612  26.173  69.640  0.00  0.00     0.016 C 
ATOM      8  C10 LG1 d5015      23.340  24.597  71.257  0.00  0.00     0.011 C 
ATOM      9  C11 LG1 d5015      24.394  24.688  72.395  0.00  0.00     0.007 C 
ATOM     10  C12 LG1 d5015      25.520  23.634  72.238  0.00  0.00     0.002 C 
ATOM     11  C13 LG1 d5015      26.569  23.731  73.407  0.00  0.00    -0.016 C 
ATOM     12  C14 LG1 d5015      27.692  22.642  73.169  0.00  0.00    -0.068 C 
ATOM     13  C15 LG1 d5015      28.134  21.827  74.109  0.00  0.00     0.053 C 
ATOM     14  C16 LG1 d5015      27.703  21.953  75.493  0.00  0.00     0.149 C 
ATOM     15  C17 LG1 d5015      26.793  23.106  75.909  0.00  0.00     0.084 C 
ATOM     16  C18 LG1 d5015      25.832  23.450  74.744  0.00  0.00     0.022 C 
ATOM     17  O2  LG1 d5015      28.129  21.170  76.360  0.00  0.00    -0.293 OA
ATOM     18  C19 LG1 d5015      28.265  22.513  71.762  0.00  0.00     0.035 C 
ATOM     19  C20 LG1 d5015      27.168  22.527  70.679  0.00  0.00     0.010 C 
ATOM     20  C21 LG1 d5015      27.304  25.126  73.446  0.00  0.00     0.020 C 
ENDROOT
BRANCH   4  21
ATOM     21  C7  LG1 d5015      22.120  25.427  68.187  0.00  0.00     0.128 C 
ATOM     22  O1  LG1 d5015      21.235  25.792  68.931  0.00  0.00    -0.298 OA
ATOM     23  C8  LG1 d5015      22.256  26.025  66.830  0.00  0.00     0.091 C 
ENDBRANCH   4  21
TORSDOF 1
ENDMDL
MODEL 2
REMARK VINA RESULT:    -6.545      1.529      7.051
REMARK INTER + INTRA:          -7.128
REMARK INTER:                  -6.981
REMARK INTRA:                  -0.147
REMARK UNBOUND:                -0.200
REMARK  1 active torsions:
REMARK  status: ('A' for Active; 'I' for Inactive)
REMARK    1  A    between atoms: C7_7  and  C4_4 
ROOT
ATOM      1  C1  LG1 d5015      24.893  23.797  70.289  0.00  0.00    -0.004 C 
ATOM      2  C2  LG1 d5015      26.257  23.652  70.973  0.00  0.00    -0.001 C 
ATOM      3  C3  LG1 d5015      26.295  24.294  72.409  0.00  0.00    -0.030 C 
ATOM      4  C4  LG1 d5015      27.753  23.889  72.808  0.00  0.00     0.063 C 
ATOM      5  C5  LG1 d5015      27.937  22.435  72.247  0.00  0.00     0.013 C 
ATOM      6  C6  LG1 d5015      26.803  22.219  71.181  0.00  0.00     0.006 C 
ATOM      7  C9  LG1 d5015      25.274  23.646  73.409  0.00  0.00     0.016 C 
ATOM      8  C10 LG1 d5015      26.048  25.806  72.204  0.00  0.00     0.011 C 
ATOM      9  C11 LG1 d5015      24.689  26.061  71.494  0.00  0.00     0.007 C 
ATOM     10  C12 LG1 d5015      24.591  25.324  70.133  0.00  0.00     0.002 C 
ATOM     11  C13 LG1 d5015      23.216  25.607  69.421  0.00  0.00    -0.016 C 
ATOM     12  C14 LG1 d5015      23.183  24.811  68.054  0.00  0.00    -0.068 C 
ATOM     13  C15 LG1 d5015      22.807  25.342  66.905  0.00  0.00     0.053 C 
ATOM     14  C16 LG1 d5015      22.267  26.691  66.828  0.00  0.00     0.149 C 
ATOM     15  C17 LG1 d5015      22.031  27.494  68.104  0.00  0.00     0.084 C 
ATOM     16  C18 LG1 d5015      23.115  27.132  69.150  0.00  0.00     0.022 C 
ATOM     17  O2  LG1 d5015      21.926  27.172  65.733  0.00  0.00    -0.293 OA
ATOM     18  C19 LG1 d5015      23.645  23.357  68.070  0.00  0.00     0.035 C 
ATOM     19  C20 LG1 d5015      24.945  23.165  68.874  0.00  0.00     0.010 C 
ATOM     20  C21 LG1 d5015      21.983  25.096  70.262  0.00  0.00     0.020 C 
ENDROOT
BRANCH   4  21
ATOM     21  C7  LG1 d5015      28.087  24.059  74.300  0.00  0.00     0.128 C 
ATOM     22  O1  LG1 d5015      28.231  23.085  75.007  0.00  0.00    -0.298 OA
ATOM     23  C8  LG1 d5015      28.238  25.429  74.865  0.00  0.00     0.091 C 
ENDBRANCH   4  21
TORSDOF 1
ENDMDL
MODEL 3
REMARK VINA RESULT:    -6.368      2.289      7.009
REMARK INTER + INTRA:          -6.941
REMARK INTER:                  -6.759
REMARK INTRA:                  -0.182
REMARK UNBOUND:                -0.200
REMARK  1 active torsions:
REMARK  status: ('A' for Active; 'I' for Inactive)
REMARK    1  A    between atoms: C7_7  and  C4_4 
ROOT
ATOM      1  C1  LG1 d5015      26.394  24.566  70.493  0.00  0.00    -0.004 C 
ATOM      2  C2  LG1 d5015      27.304  23.966  71.571  0.00  0.00    -0.001 C 
ATOM      3  C3  LG1 d5015      26.774  24.219  73.032  0.00  0.00    -0.030 C 
ATOM      4  C4  LG1 d5015      27.868  23.421  73.818  0.00  0.00     0.063 C 
ATOM      5  C5  LG1 d5015      28.139  22.141  72.951  0.00  0.00     0.013 C 
ATOM      6  C6  LG1 d5015      27.566  22.441  71.519  0.00  0.00     0.006 C 
ATOM      7  C9  LG1 d5015      25.364  23.586  73.301  0.00  0.00     0.016 C 
ATOM      8  C10 LG1 d5015      26.786  25.751  73.227  0.00  0.00     0.011 C 
ATOM      9  C11 LG1 d5015      25.903  26.460  72.163  0.00  0.00     0.007 C 
ATOM     10  C12 LG1 d5015      26.337  26.113  70.716  0.00  0.00     0.002 C 
ATOM     11  C13 LG1 d5015      25.442  26.851  69.652  0.00  0.00    -0.016 C 
ATOM     12  C14 LG1 d5015      25.931  26.436  68.206  0.00  0.00    -0.068 C 
ATOM     13  C15 LG1 d5015      26.145  27.297  67.228  0.00  0.00     0.053 C 
ATOM     14  C16 LG1 d5015      25.822  28.709  67.371  0.00  0.00     0.149 C 
ATOM     15  C17 LG1 d5015      25.133  29.212  68.636  0.00  0.00     0.084 C 
ATOM     16  C18 LG1 d5015      25.614  28.381  69.851  0.00  0.00     0.022 C 
ATOM     17  O2  LG1 d5015      26.039  29.502  66.438  0.00  0.00    -0.293 OA
ATOM     18  C19 LG1 d5015      26.199  24.957  67.947  0.00  0.00     0.035 C 
ATOM     19  C20 LG1 d5015      26.995  24.298  69.090  0.00  0.00     0.010 C 
ATOM     20  C21 LG1 d5015      23.924  26.434  69.744  0.00  0.00     0.020 C 
ENDROOT
BRANCH   4  21
ATOM     21  C7  LG1 d5015      27.535  23.150  75.294  0.00  0.00     0.128 C 
ATOM     22  O1  LG1 d5015      27.339  24.074  76.055  0.00  0.00    -0.298 OA
ATOM     23  C8  LG1 d5015      27.447  21.745  75.781  0.00  0.00     0.091 C 
ENDBRANCH   4  21
TORSDOF 1
ENDMDL
MODEL 4
REMARK VINA RESULT:    -6.351      2.506      6.715
REMARK INTER + INTRA:          -6.923
REMARK INTER:                  -6.828
REMARK INTRA:                  -0.095
REMARK UNBOUND:                -0.200
REMARK  1 active torsions:
REMARK  status: ('A' for Active; 'I' for Inactive)
REMARK    1  A    between atoms: C7_7  and  C4_4 
ROOT
ATOM      1  C1  LG1 d5015      26.632  25.768  72.140  0.00  0.00    -0.004 C 
ATOM      2  C2  LG1 d5015      26.230  26.478  73.438  0.00  0.00    -0.001 C 
ATOM      3  C3  LG1 d5015      26.516  25.615  74.723  0.00  0.00    -0.030 C 
ATOM      4  C4  LG1 d5015      26.079  26.657  75.806  0.00  0.00     0.063 C 
ATOM      5  C5  LG1 d5015      26.594  28.039  75.271  0.00  0.00     0.013 C 
ATOM      6  C6  LG1 d5015      26.893  27.844  73.740  0.00  0.00     0.006 C 
ATOM      7  C9  LG1 d5015      28.033  25.262  74.912  0.00  0.00     0.016 C 
ATOM      8  C10 LG1 d5015      25.624  24.359  74.597  0.00  0.00     0.011 C 
ATOM      9  C11 LG1 d5015      25.942  23.574  73.294  0.00  0.00     0.007 C 
ATOM     10  C12 LG1 d5015      25.788  24.455  72.027  0.00  0.00     0.002 C 
ATOM     11  C13 LG1 d5015      26.098  23.641  70.717  0.00  0.00    -0.016 C 
ATOM     12  C14 LG1 d5015      25.939  24.606  69.473  0.00  0.00    -0.068 C 
ATOM     13  C15 LG1 d5015      25.270  24.289  68.379  0.00  0.00     0.053 C 
ATOM     14  C16 LG1 d5015      24.722  22.957  68.179  0.00  0.00     0.149 C 
ATOM     15  C17 LG1 d5015      24.995  21.856  69.200  0.00  0.00     0.084 C 
ATOM     16  C18 LG1 d5015      25.077  22.476  70.617  0.00  0.00     0.022 C 
ATOM     17  O2  LG1 d5015      24.090  22.685  67.143  0.00  0.00    -0.293 OA
ATOM     18  C19 LG1 d5015      26.571  25.991  69.567  0.00  0.00     0.035 C 
ATOM     19  C20 LG1 d5015      26.296  26.668  70.924  0.00  0.00     0.010 C 
ATOM     20  C21 LG1 d5015      27.579  23.102  70.674  0.00  0.00     0.020 C 
ENDROOT
BRANCH   4  21
ATOM     21  C7  LG1 d5015      26.505  26.314  77.243  0.00  0.00     0.128 C 
ATOM     22  O1  LG1 d5015      27.250  27.053  77.851  0.00  0.00    -0.298 OA
ATOM     23  C8  LG1 d5015      25.989  25.073  77.885  0.00  0.00     0.091 C 
ENDBRANCH   4  21
TORSDOF 1
ENDMDL
MODEL 5
REMARK VINA RESULT:    -6.271      2.032      3.954
REMARK INTER + INTRA:          -6.838
REMARK INTER:                  -6.637
REMARK INTRA:                  -0.200
REMARK UNBOUND:                -0.200
REMARK  1 active torsions:
REMARK  status: ('A' for Active; 'I' for Inactive)
REMARK    1  A    between atoms: C7_7  and  C4_4 
ROOT
ATOM      1  C1  LG1 d5015      23.465  24.624  69.784  0.00  0.00    -0.004 C 
ATOM      2  C2  LG1 d5015      22.828  25.930  69.299  0.00  0.00    -0.001 C 
ATOM      3  C3  LG1 d5015      23.081  26.206  67.770  0.00  0.00    -0.030 C 
ATOM      4  C4  LG1 d5015      22.243  27.521  67.628  0.00  0.00     0.063 C 
ATOM      5  C5  LG1 d5015      20.965  27.284  68.507  0.00  0.00     0.013 C 
ATOM      6  C6  LG1 d5015      21.296  26.084  69.466  0.00  0.00     0.006 C 
ATOM      7  C9  LG1 d5015      22.488  25.098  66.830  0.00  0.00     0.016 C 
ATOM      8  C10 LG1 d5015      24.610  26.362  67.616  0.00  0.00     0.011 C 
ATOM      9  C11 LG1 d5015      25.356  25.088  68.103  0.00  0.00     0.007 C 
ATOM     10  C12 LG1 d5015      25.011  24.733  69.572  0.00  0.00     0.002 C 
ATOM     11  C13 LG1 d5015      25.787  23.451  70.053  0.00  0.00    -0.016 C 
ATOM     12  C14 LG1 d5015      25.372  23.142  71.549  0.00  0.00    -0.068 C 
ATOM     13  C15 LG1 d5015      26.237  22.867  72.508  0.00  0.00     0.053 C 
ATOM     14  C16 LG1 d5015      27.656  22.703  72.232  0.00  0.00     0.149 C 
ATOM     15  C17 LG1 d5015      28.166  22.750  70.795  0.00  0.00     0.084 C 
ATOM     16  C18 LG1 d5015      27.309  23.747  69.976  0.00  0.00     0.022 C 
ATOM     17  O2  LG1 d5015      28.452  22.451  73.154  0.00  0.00    -0.293 OA
ATOM     18  C19 LG1 d5015      23.888  23.199  71.897  0.00  0.00     0.035 C 
ATOM     19  C20 LG1 d5015      23.194  24.438  71.299  0.00  0.00     0.010 C 
ATOM     20  C21 LG1 d5015      25.415  22.168  69.215  0.00  0.00     0.020 C 
ENDROOT
BRANCH   4  21
ATOM     21  C7  LG1 d5015      21.967  27.959  66.180  0.00  0.00     0.128 C 
ATOM     22  O1  LG1 d5015      22.871  28.368  65.484  0.00  0.00    -0.298 OA
ATOM     23  C8  LG1 d5015      20.582  27.869  65.638  0.00  0.00     0.091 C 
ENDBRANCH   4  21
TORSDOF 1
ENDMDL
