REMARK INTER + INTRA:          -8.138
REMARK INTER:                  -7.939
REMARK INTRA:                  -0.199
REMARK UNBOUND:                -0.204
REMARK  1 active torsions:
REMARK  status: ('A' for Active; 'I' for Inactive)
REMARK    1  A    between atoms: C7_7  and  C4_4 
ROOT
ATOM      1  C1  LG1 d5015      26.196  23.712  70.806  0.00  0.00    -0.004 C 
ATOM      2  C2  LG1 d5015      25.091  23.585  69.752  0.00  0.00    -0.001 C 
ATOM      3  C3  LG1 d5015      24.031  24.745  69.832  0.00  0.00    -0.030 C 
ATOM      4  C4  LG1 d5015      23.151  24.342  68.601  0.00  0.00     0.063 C 
ATOM      5  C5  LG1 d5015      24.173  23.857  67.513  0.00  0.00     0.013 C 
ATOM      6  C6  LG1 d5015      25.521  23.561  68.265  0.00  0.00     0.006 C 
ATOM      7  C9  LG1 d5015      24.647  26.169  69.597  0.00  0.00     0.016 C 
ATOM      8  C10 LG1 d5015      23.357  24.609  71.215  0.00  0.00     0.011 C 
ATOM      9  C11 LG1 d5015      24.403  24.705  72.361  0.00  0.00     0.007 C 
ATOM     10  C12 LG1 d5015      25.527  23.646  72.219  0.00  0.00     0.002 C 
ATOM     11  C13 LG1 d5015      26.567  23.747  73.395  0.00  0.00    -0.016 C 
ATOM     12  C14 LG1 d5015      27.688  22.652  73.172  0.00  0.00    -0.068 C 
ATOM     13  C15 LG1 d5015      28.121  21.842  74.121  0.00  0.00     0.053 C 
ATOM     14  C16 LG1 d5015      27.680  21.980  75.501  0.00  0.00     0.149 C 
ATOM     15  C17 LG1 d5015      26.772  23.138  75.902  0.00  0.00     0.084 C 
ATOM     16  C18 LG1 d5015      25.820  23.478  74.728  0.00  0.00     0.022 C 
ATOM     17  O2  LG1 d5015      28.097  21.200  76.376  0.00  0.00    -0.293 OA
ATOM     18  C19 LG1 d5015      28.271  22.511  71.770  0.00  0.00     0.035 C 
ATOM     19  C20 LG1 d5015      27.182  22.522  70.680  0.00  0.00     0.010 C 
ATOM     20  C21 LG1 d5015      27.308  25.139  73.430  0.00  0.00     0.020 C 
ENDROOT
BRANCH   4  21
ATOM     21  C7  LG1 d5015      22.162  25.422  68.131  0.00  0.00     0.128 C 
ATOM     22  O1  LG1 d5015      21.271  25.794  68.865  0.00  0.00    -0.298 OA
ATOM     23  C8  LG1 d5015      22.313  26.014  66.773  0.00  0.00     0.091 C 
ENDBRANCH   4  21
TORSDOF 1
ENDMDL
