REMARK INTER + INTRA:          -6.857
REMARK INTER:                  -6.654
REMARK INTRA:                  -0.204
REMARK UNBOUND:                -0.204
REMARK  1 active torsions:
REMARK  status: ('A' for Active; 'I' for Inactive)
REMARK    1  A    between atoms: C7_7  and  C4_4 
ROOT
ATOM      1  C1  LG1 d5015      23.422  24.613  69.792  0.00  0.00    -0.004 C 
ATOM      2  C2  LG1 d5015      22.783  25.923  69.319  0.00  0.00    -0.001 C 
ATOM      3  C3  LG1 d5015      23.023  26.206  67.789  0.00  0.00    -0.030 C 
ATOM      4  C4  LG1 d5015      22.186  27.522  67.661  0.00  0.00     0.063 C 
ATOM      5  C5  LG1 d5015      20.915  27.283  68.549  0.00  0.00     0.013 C 
ATOM      6  C6  LG1 d5015      21.253  26.078  69.499  0.00  0.00     0.006 C 
ATOM      7  C9  LG1 d5015      22.421  25.103  66.849  0.00  0.00     0.016 C 
ATOM      8  C10 LG1 d5015      24.551  26.360  67.622  0.00  0.00     0.011 C 
ATOM      9  C11 LG1 d5015      25.299  25.082  68.097  0.00  0.00     0.007 C 
ATOM     10  C12 LG1 d5015      24.967  24.720  69.568  0.00  0.00     0.002 C 
ATOM     11  C13 LG1 d5015      25.744  23.435  70.036  0.00  0.00    -0.016 C 
ATOM     12  C14 LG1 d5015      25.341  23.119  71.533  0.00  0.00    -0.068 C 
ATOM     13  C15 LG1 d5015      26.214  22.838  72.484  0.00  0.00     0.053 C 
ATOM     14  C16 LG1 d5015      27.630  22.673  72.195  0.00  0.00     0.149 C 
ATOM     15  C17 LG1 d5015      28.128  22.727  70.754  0.00  0.00     0.084 C 
ATOM     16  C18 LG1 d5015      27.266  23.729  69.947  0.00  0.00     0.022 C 
ATOM     17  O2  LG1 d5015      28.434  22.415  73.109  0.00  0.00    -0.293 OA
ATOM     18  C19 LG1 d5015      23.861  23.178  71.895  0.00  0.00     0.035 C 
ATOM     19  C20 LG1 d5015      23.163  24.420  71.308  0.00  0.00     0.010 C 
ATOM     20  C21 LG1 d5015      25.363  22.157  69.195  0.00  0.00     0.020 C 
ENDROOT
BRANCH   4  21
ATOM     21  C7  LG1 d5015      21.898  27.967  66.217  0.00  0.00     0.128 C 
ATOM     22  O1  LG1 d5015      22.803  28.344  65.503  0.00  0.00    -0.298 OA
ATOM     23  C8  LG1 d5015      20.502  27.925  65.701  0.00  0.00     0.091 C 
ENDBRANCH   4  21
TORSDOF 1
ENDMDL
