REMARK INTER + INTRA:          -8.122
REMARK INTER:                  -7.924
REMARK INTRA:                  -0.198
REMARK UNBOUND:                -0.200
REMARK  1 active torsions:
REMARK  status: ('A' for Active; 'I' for Inactive)
REMARK    1  A    between atoms: C7_7  and  C4_4 
ROOT
ATOM      1  C1  LG1 d5015      26.179  23.712  70.821  0.00  0.00    -0.004 C 
ATOM      2  C2  LG1 d5015      25.067  23.589  69.774  0.00  0.00    -0.001 C 
ATOM      3  C3  LG1 d5015      24.003  24.745  69.869  0.00  0.00    -0.030 C 
ATOM      4  C4  LG1 d5015      23.116  24.347  68.642  0.00  0.00     0.063 C 
ATOM      5  C5  LG1 d5015      24.131  23.873  67.544  0.00  0.00     0.013 C 
ATOM      6  C6  LG1 d5015      25.486  23.577  68.284  0.00  0.00     0.006 C 
ATOM      7  C9  LG1 d5015      24.612  26.173  69.640  0.00  0.00     0.016 C 
ATOM      8  C10 LG1 d5015      23.340  24.597  71.257  0.00  0.00     0.011 C 
ATOM      9  C11 LG1 d5015      24.394  24.688  72.395  0.00  0.00     0.007 C 
ATOM     10  C12 LG1 d5015      25.520  23.634  72.238  0.00  0.00     0.002 C 
ATOM     11  C13 LG1 d5015      26.569  23.731  73.407  0.00  0.00    -0.016 C 
ATOM     12  C14 LG1 d5015      27.692  22.642  73.169  0.00  0.00    -0.068 C 
ATOM     13  C15 LG1 d5015      28.134  21.827  74.109  0.00  0.00     0.053 C 
ATOM     14  C16 LG1 d5015      27.703  21.953  75.493  0.00  0.00     0.149 C 
ATOM     15  C17 LG1 d5015      26.793  23.106  75.909  0.00  0.00     0.084 C 
ATOM     16  C18 LG1 d5015      25.832  23.450  74.744  0.00  0.00     0.022 C 
ATOM     17  O2  LG1 d5015      28.129  21.170  76.360  0.00  0.00    -0.293 OA
ATOM     18  C19 LG1 d5015      28.265  22.513  71.762  0.00  0.00     0.035 C 
ATOM     19  C20 LG1 d5015      27.168  22.527  70.679  0.00  0.00     0.010 C 
ATOM     20  C21 LG1 d5015      27.304  25.126  73.446  0.00  0.00     0.020 C 
ENDROOT
BRANCH   4  21
ATOM     21  C7  LG1 d5015      22.120  25.427  68.187  0.00  0.00     0.128 C 
ATOM     22  O1  LG1 d5015      21.235  25.792  68.931  0.00  0.00    -0.298 OA
ATOM     23  C8  LG1 d5015      22.256  26.025  66.830  0.00  0.00     0.091 C 
ENDBRANCH   4  21
TORSDOF 1
ENDMDL
