REMARK INTER + INTRA:          -6.870
REMARK INTER:                  -6.666
REMARK INTRA:                  -0.204
REMARK UNBOUND:                -0.204
REMARK  1 active torsions:
REMARK  status: ('A' for Active; 'I' for Inactive)
REMARK    1  A    between atoms: C7_7  and  C4_4 
ROOT
ATOM      1  C1  LG1 d5015      23.481  24.628  69.840  0.00  0.00    -0.004 C 
ATOM      2  C2  LG1 d5015      22.863  25.940  69.347  0.00  0.00    -0.001 C 
ATOM      3  C3  LG1 d5015      23.121  26.203  67.816  0.00  0.00    -0.030 C 
ATOM      4  C4  LG1 d5015      22.303  27.529  67.665  0.00  0.00     0.063 C 
ATOM      5  C5  LG1 d5015      21.021  27.317  68.545  0.00  0.00     0.013 C 
ATOM      6  C6  LG1 d5015      21.334  26.118  69.512  0.00  0.00     0.006 C 
ATOM      7  C9  LG1 d5015      22.512  25.098  66.883  0.00  0.00     0.016 C 
ATOM      8  C10 LG1 d5015      24.652  26.335  67.661  0.00  0.00     0.011 C 
ATOM      9  C11 LG1 d5015      25.379  25.053  68.157  0.00  0.00     0.007 C 
ATOM     10  C12 LG1 d5015      25.028  24.713  69.629  0.00  0.00     0.002 C 
ATOM     11  C13 LG1 d5015      25.784  23.422  70.118  0.00  0.00    -0.016 C 
ATOM     12  C14 LG1 d5015      25.364  23.129  71.615  0.00  0.00    -0.068 C 
ATOM     13  C15 LG1 d5015      26.225  22.847  72.577  0.00  0.00     0.053 C 
ATOM     14  C16 LG1 d5015      27.641  22.660  72.303  0.00  0.00     0.149 C 
ATOM     15  C17 LG1 d5015      28.152  22.691  70.866  0.00  0.00     0.084 C 
ATOM     16  C18 LG1 d5015      27.310  23.695  70.040  0.00  0.00     0.022 C 
ATOM     17  O2  LG1 d5015      28.433  22.402  73.227  0.00  0.00    -0.293 OA
ATOM     18  C19 LG1 d5015      23.882  23.211  71.963  0.00  0.00     0.035 C 
ATOM     19  C20 LG1 d5015      23.206  24.456  71.356  0.00  0.00     0.010 C 
ATOM     20  C21 LG1 d5015      25.393  22.140  69.288  0.00  0.00     0.020 C 
ENDROOT
BRANCH   4  21
ATOM     21  C7  LG1 d5015      22.033  27.961  66.214  0.00  0.00     0.128 C 
ATOM     22  O1  LG1 d5015      22.947  28.332  65.509  0.00  0.00    -0.298 OA
ATOM     23  C8  LG1 d5015      20.644  27.913  65.680  0.00  0.00     0.091 C 
ENDBRANCH   4  21
TORSDOF 1
ENDMDL
