REMARK INTER + INTRA:          -6.849
REMARK INTER:                  -6.645
REMARK INTRA:                  -0.204
REMARK UNBOUND:                -0.204
REMARK  1 active torsions:
REMARK  status: ('A' for Active; 'I' for Inactive)
REMARK    1  A    between atoms: C7_7  and  C4_4 
ROOT
ATOM      1  C1  LG1 d5015      23.450  24.618  69.799  0.00  0.00    -0.004 C 
ATOM      2  C2  LG1 d5015      22.813  25.929  69.325  0.00  0.00    -0.001 C 
ATOM      3  C3  LG1 d5015      23.054  26.212  67.796  0.00  0.00    -0.030 C 
ATOM      4  C4  LG1 d5015      22.220  27.530  67.667  0.00  0.00     0.063 C 
ATOM      5  C5  LG1 d5015      20.948  27.293  68.555  0.00  0.00     0.013 C 
ATOM      6  C6  LG1 d5015      21.283  26.087  69.506  0.00  0.00     0.006 C 
ATOM      7  C9  LG1 d5015      22.450  25.110  66.855  0.00  0.00     0.016 C 
ATOM      8  C10 LG1 d5015      24.583  26.364  67.630  0.00  0.00     0.011 C 
ATOM      9  C11 LG1 d5015      25.328  25.085  68.104  0.00  0.00     0.007 C 
ATOM     10  C12 LG1 d5015      24.995  24.723  69.575  0.00  0.00     0.002 C 
ATOM     11  C13 LG1 d5015      25.770  23.437  70.043  0.00  0.00    -0.016 C 
ATOM     12  C14 LG1 d5015      25.366  23.121  71.540  0.00  0.00    -0.068 C 
ATOM     13  C15 LG1 d5015      26.238  22.839  72.491  0.00  0.00     0.053 C 
ATOM     14  C16 LG1 d5015      27.654  22.671  72.203  0.00  0.00     0.149 C 
ATOM     15  C17 LG1 d5015      28.153  22.724  70.761  0.00  0.00     0.084 C 
ATOM     16  C18 LG1 d5015      27.292  23.728  69.954  0.00  0.00     0.022 C 
ATOM     17  O2  LG1 d5015      28.457  22.412  73.117  0.00  0.00    -0.293 OA
ATOM     18  C19 LG1 d5015      23.886  23.182  71.901  0.00  0.00     0.035 C 
ATOM     19  C20 LG1 d5015      23.191  24.426  71.315  0.00  0.00     0.010 C 
ATOM     20  C21 LG1 d5015      25.387  22.159  69.201  0.00  0.00     0.020 C 
ENDROOT
BRANCH   4  21
ATOM     21  C7  LG1 d5015      21.933  27.976  66.224  0.00  0.00     0.128 C 
ATOM     22  O1  LG1 d5015      22.839  28.350  65.510  0.00  0.00    -0.298 OA
ATOM     23  C8  LG1 d5015      20.536  27.937  65.708  0.00  0.00     0.091 C 
ENDBRANCH   4  21
TORSDOF 1
ENDMDL
