MODEL 1
REMARK VINA RESULT:    -7.496      0.000      0.000
REMARK INTER + INTRA:          -8.138
REMARK INTER:                  -7.939
REMARK INTRA:                  -0.199
REMARK UNBOUND:                -0.204
REMARK  1 active torsions:
REMARK  status: ('A' for Active; 'I' for Inactive)
REMARK    1  A    between atoms: C7_7  and  C4_4 
ROOT
ATOM      1  C1  LG1 d5015      26.196  23.712  70.806  0.00  0.00    -0.004 C 
ATOM      2  C2  LG1 d5015      25.091  23.585  69.752  0.00  0.00    -0.001 C 
ATOM      3  C3  LG1 d5015      24.031  24.745  69.832  0.00  0.00    -0.030 C 
ATOM      4  C4  LG1 d5015      23.151  24.342  68.601  0.00  0.00     0.063 C 
ATOM      5  C5  LG1 d5015      24.173  23.857  67.513  0.00  0.00     0.013 C 
ATOM      6  C6  LG1 d5015      25.521  23.561  68.265  0.00  0.00     0.006 C 
ATOM      7  C9  LG1 d5015      24.647  26.169  69.597  0.00  0.00     0.016 C 
ATOM      8  C10 LG1 d5015      23.357  24.609  71.215  0.00  0.00     0.011 C 
ATOM      9  C11 LG1 d5015      24.403  24.705  72.361  0.00  0.00     0.007 C 
ATOM     10  C12 LG1 d5015      25.527  23.646  72.219  0.00  0.00     0.002 C 
ATOM     11  C13 LG1 d5015      26.567  23.747  73.395  0.00  0.00    -0.016 C 
ATOM     12  C14 LG1 d5015      27.688  22.652  73.172  0.00  0.00    -0.068 C 
ATOM     13  C15 LG1 d5015      28.121  21.842  74.121  0.00  0.00     0.053 C 
ATOM     14  C16 LG1 d5015      27.680  21.980  75.501  0.00  0.00     0.149 C 
ATOM     15  C17 LG1 d5015      26.772  23.138  75.902  0.00  0.00     0.084 C 
ATOM     16  C18 LG1 d5015      25.820  23.478  74.728  0.00  0.00     0.022 C 
ATOM     17  O2  LG1 d5015      28.097  21.200  76.376  0.00  0.00    -0.293 OA
ATOM     18  C19 LG1 d5015      28.271  22.511  71.770  0.00  0.00     0.035 C 
ATOM     19  C20 LG1 d5015      27.182  22.522  70.680  0.00  0.00     0.010 C 
ATOM     20  C21 LG1 d5015      27.308  25.139  73.430  0.00  0.00     0.020 C 
ENDROOT
BRANCH   4  21
ATOM     21  C7  LG1 d5015      22.162  25.422  68.131  0.00  0.00     0.128 C 
ATOM     22  O1  LG1 d5015      21.271  25.794  68.865  0.00  0.00    -0.298 OA
ATOM     23  C8  LG1 d5015      22.313  26.014  66.773  0.00  0.00     0.091 C 
ENDBRANCH   4  21
TORSDOF 1
ENDMDL
MODEL 2
REMARK VINA RESULT:    -6.570      1.514      7.046
REMARK INTER + INTRA:          -7.158
REMARK INTER:                  -7.009
REMARK INTRA:                  -0.149
REMARK UNBOUND:                -0.204
REMARK  1 active torsions:
REMARK  status: ('A' for Active; 'I' for Inactive)
REMARK    1  A    between atoms: C7_7  and  C4_4 
ROOT
ATOM      1  C1  LG1 d5015      24.897  23.784  70.290  0.00  0.00    -0.004 C 
ATOM      2  C2  LG1 d5015      26.259  23.644  70.980  0.00  0.00    -0.001 C 
ATOM      3  C3  LG1 d5015      26.289  24.291  72.415  0.00  0.00    -0.030 C 
ATOM      4  C4  LG1 d5015      27.746  23.890  72.821  0.00  0.00     0.063 C 
ATOM      5  C5  LG1 d5015      27.938  22.436  72.265  0.00  0.00     0.013 C 
ATOM      6  C6  LG1 d5015      26.808  22.213  71.195  0.00  0.00     0.006 C 
ATOM      7  C9  LG1 d5015      25.266  23.642  73.413  0.00  0.00     0.016 C 
ATOM      8  C10 LG1 d5015      26.038  25.800  72.205  0.00  0.00     0.011 C 
ATOM      9  C11 LG1 d5015      24.681  26.050  71.489  0.00  0.00     0.007 C 
ATOM     10  C12 LG1 d5015      24.591  25.309  70.129  0.00  0.00     0.002 C 
ATOM     11  C13 LG1 d5015      23.219  25.586  69.411  0.00  0.00    -0.016 C 
ATOM     12  C14 LG1 d5015      23.193  24.785  68.046  0.00  0.00    -0.068 C 
ATOM     13  C15 LG1 d5015      22.820  25.313  66.894  0.00  0.00     0.053 C 
ATOM     14  C16 LG1 d5015      22.276  26.659  66.812  0.00  0.00     0.149 C 
ATOM     15  C17 LG1 d5015      22.033  27.465  68.084  0.00  0.00     0.084 C 
ATOM     16  C18 LG1 d5015      23.113  27.109  69.135  0.00  0.00     0.022 C 
ATOM     17  O2  LG1 d5015      21.938  27.136  65.714  0.00  0.00    -0.293 OA
ATOM     18  C19 LG1 d5015      23.659  23.334  68.068  0.00  0.00     0.035 C 
ATOM     19  C20 LG1 d5015      24.957  23.148  68.878  0.00  0.00     0.010 C 
ATOM     20  C21 LG1 d5015      21.984  25.074  70.248  0.00  0.00     0.020 C 
ENDROOT
BRANCH   4  21
ATOM     21  C7  LG1 d5015      28.074  24.066  74.314  0.00  0.00     0.128 C 
ATOM     22  O1  LG1 d5015      28.221  23.095  75.024  0.00  0.00    -0.298 OA
ATOM     23  C8  LG1 d5015      28.217  25.438  74.876  0.00  0.00     0.091 C 
ENDBRANCH   4  21
TORSDOF 1
ENDMDL
MODEL 3
REMARK VINA RESULT:    -6.377      2.283      7.011
REMARK INTER + INTRA:          -6.954
REMARK INTER:                  -6.776
REMARK INTRA:                  -0.177
REMARK UNBOUND:                -0.204
REMARK  1 active torsions:
REMARK  status: ('A' for Active; 'I' for Inactive)
REMARK    1  A    between atoms: C7_7  and  C4_4 
ROOT
ATOM      1  C1  LG1 d5015      26.379  24.593  70.476  0.00  0.00    -0.004 C 
ATOM      2  C2  LG1 d5015      27.290  23.981  71.545  0.00  0.00    -0.001 C 
ATOM      3  C3  LG1 d5015      26.773  24.233  73.010  0.00  0.00    -0.030 C 
ATOM      4  C4  LG1 d5015      27.864  23.422  73.786  0.00  0.00     0.063 C 
ATOM      5  C5  LG1 d5015      28.117  22.143  72.913  0.00  0.00     0.013 C 
ATOM      6  C6  LG1 d5015      27.538  22.454  71.485  0.00  0.00     0.006 C 
ATOM      7  C9  LG1 d5015      25.358  23.612  73.287  0.00  0.00     0.016 C 
ATOM      8  C10 LG1 d5015      26.800  25.764  73.212  0.00  0.00     0.011 C 
ATOM      9  C11 LG1 d5015      25.916  26.485  72.157  0.00  0.00     0.007 C 
ATOM     10  C12 LG1 d5015      26.338  26.141  70.705  0.00  0.00     0.002 C 
ATOM     11  C13 LG1 d5015      25.443  26.891  69.650  0.00  0.00    -0.016 C 
ATOM     12  C14 LG1 d5015      25.919  26.477  68.199  0.00  0.00    -0.068 C 
ATOM     13  C15 LG1 d5015      26.134  27.341  67.223  0.00  0.00     0.053 C 
ATOM     14  C16 LG1 d5015      25.826  28.754  67.374  0.00  0.00     0.149 C 
ATOM     15  C17 LG1 d5015      25.149  29.258  68.645  0.00  0.00     0.084 C 
ATOM     16  C18 LG1 d5015      25.630  28.418  69.854  0.00  0.00     0.022 C 
ATOM     17  O2  LG1 d5015      26.043  29.549  66.442  0.00  0.00    -0.293 OA
ATOM     18  C19 LG1 d5015      26.171  24.997  67.933  0.00  0.00     0.035 C 
ATOM     19  C20 LG1 d5015      26.969  24.326  69.068  0.00  0.00     0.010 C 
ATOM     20  C21 LG1 d5015      23.922  26.488  69.750  0.00  0.00     0.020 C 
ENDROOT
BRANCH   4  21
ATOM     21  C7  LG1 d5015      27.538  23.148  75.264  0.00  0.00     0.128 C 
ATOM     22  O1  LG1 d5015      27.344  24.070  76.027  0.00  0.00    -0.298 OA
ATOM     23  C8  LG1 d5015      27.454  21.742  75.748  0.00  0.00     0.091 C 
ENDBRANCH   4  21
TORSDOF 1
ENDMDL
MODEL 4
REMARK VINA RESULT:    -6.348      2.480      6.740
REMARK INTER + INTRA:          -6.922
REMARK INTER:                  -6.833
REMARK INTRA:                  -0.090
REMARK UNBOUND:                -0.204
REMARK  1 active torsions:
REMARK  status: ('A' for Active; 'I' for Inactive)
REMARK    1  A    between atoms: C7_7  and  C4_4 
ROOT
ATOM      1  C1  LG1 d5015      26.640  25.779  72.144  0.00  0.00    -0.004 C 
ATOM      2  C2  LG1 d5015      26.237  26.472  73.449  0.00  0.00    -0.001 C 
ATOM      3  C3  LG1 d5015      26.528  25.597  74.725  0.00  0.00    -0.030 C 
ATOM      4  C4  LG1 d5015      26.087  26.625  75.819  0.00  0.00     0.063 C 
ATOM      5  C5  LG1 d5015      26.595  28.015  75.299  0.00  0.00     0.013 C 
ATOM      6  C6  LG1 d5015      26.893  27.838  73.766  0.00  0.00     0.006 C 
ATOM      7  C9  LG1 d5015      28.048  25.250  74.908  0.00  0.00     0.016 C 
ATOM      8  C10 LG1 d5015      25.643  24.338  74.585  0.00  0.00     0.011 C 
ATOM      9  C11 LG1 d5015      25.963  23.569  73.273  0.00  0.00     0.007 C 
ATOM     10  C12 LG1 d5015      25.804  24.463  72.016  0.00  0.00     0.002 C 
ATOM     11  C13 LG1 d5015      26.116  23.665  70.697  0.00  0.00    -0.016 C 
ATOM     12  C14 LG1 d5015      25.951  24.644  69.464  0.00  0.00    -0.068 C 
ATOM     13  C15 LG1 d5015      25.282  24.336  68.367  0.00  0.00     0.053 C 
ATOM     14  C16 LG1 d5015      24.741  23.002  68.153  0.00  0.00     0.149 C 
ATOM     15  C17 LG1 d5015      25.021  21.892  69.161  0.00  0.00     0.084 C 
ATOM     16  C18 LG1 d5015      25.101  22.496  70.585  0.00  0.00     0.022 C 
ATOM     17  O2  LG1 d5015      24.109  22.738  67.115  0.00  0.00    -0.293 OA
ATOM     18  C19 LG1 d5015      26.575  26.031  69.573  0.00  0.00     0.035 C 
ATOM     19  C20 LG1 d5015      26.299  26.691  70.938  0.00  0.00     0.010 C 
ATOM     20  C21 LG1 d5015      27.600  23.135  70.646  0.00  0.00     0.020 C 
ENDROOT
BRANCH   4  21
ATOM     21  C7  LG1 d5015      26.516  26.268  77.252  0.00  0.00     0.128 C 
ATOM     22  O1  LG1 d5015      27.251  27.008  77.871  0.00  0.00    -0.298 OA
ATOM     23  C8  LG1 d5015      26.016  25.011  77.877  0.00  0.00     0.091 C 
ENDBRANCH   4  21
TORSDOF 1
ENDMDL
MODEL 5
REMARK VINA RESULT:    -6.278      2.028      3.957
REMARK INTER + INTRA:          -6.849
REMARK INTER:                  -6.645
REMARK INTRA:                  -0.204
REMARK UNBOUND:                -0.204
REMARK  1 active torsions:
REMARK  status: ('A' for Active; 'I' for Inactive)
REMARK    1  A    between atoms: C7_7  and  C4_4 
ROOT
ATOM      1  C1  LG1 d5015      23.450  24.618  69.799  0.00  0.00    -0.004 C 
ATOM      2  C2  LG1 d5015      22.813  25.929  69.325  0.00  0.00    -0.001 C 
ATOM      3  C3  LG1 d5015      23.054  26.212  67.796  0.00  0.00    -0.030 C 
ATOM      4  C4  LG1 d5015      22.220  27.530  67.667  0.00  0.00     0.063 C 
ATOM      5  C5  LG1 d5015      20.948  27.293  68.555  0.00  0.00     0.013 C 
ATOM      6  C6  LG1 d5015      21.283  26.087  69.506  0.00  0.00     0.006 C 
ATOM      7  C9  LG1 d5015      22.450  25.110  66.855  0.00  0.00     0.016 C 
ATOM      8  C10 LG1 d5015      24.583  26.364  67.630  0.00  0.00     0.011 C 
ATOM      9  C11 LG1 d5015      25.328  25.085  68.104  0.00  0.00     0.007 C 
ATOM     10  C12 LG1 d5015      24.995  24.723  69.575  0.00  0.00     0.002 C 
ATOM     11  C13 LG1 d5015      25.770  23.437  70.043  0.00  0.00    -0.016 C 
ATOM     12  C14 LG1 d5015      25.366  23.121  71.540  0.00  0.00    -0.068 C 
ATOM     13  C15 LG1 d5015      26.238  22.839  72.491  0.00  0.00     0.053 C 
ATOM     14  C16 LG1 d5015      27.654  22.671  72.203  0.00  0.00     0.149 C 
ATOM     15  C17 LG1 d5015      28.153  22.724  70.761  0.00  0.00     0.084 C 
ATOM     16  C18 LG1 d5015      27.292  23.728  69.954  0.00  0.00     0.022 C 
ATOM     17  O2  LG1 d5015      28.457  22.412  73.117  0.00  0.00    -0.293 OA
ATOM     18  C19 LG1 d5015      23.886  23.182  71.901  0.00  0.00     0.035 C 
ATOM     19  C20 LG1 d5015      23.191  24.426  71.315  0.00  0.00     0.010 C 
ATOM     20  C21 LG1 d5015      25.387  22.159  69.201  0.00  0.00     0.020 C 
ENDROOT
BRANCH   4  21
ATOM     21  C7  LG1 d5015      21.933  27.976  66.224  0.00  0.00     0.128 C 
ATOM     22  O1  LG1 d5015      22.839  28.350  65.510  0.00  0.00    -0.298 OA
ATOM     23  C8  LG1 d5015      20.536  27.937  65.708  0.00  0.00     0.091 C 
ENDBRANCH   4  21
TORSDOF 1
ENDMDL
