REMARK INTER + INTRA:          -6.912
REMARK INTER:                  -6.876
REMARK INTRA:                  -0.036
REMARK UNBOUND:                -0.204
REMARK  1 active torsions:
REMARK  status: ('A' for Active; 'I' for Inactive)
REMARK    1  A    between atoms: C7_7  and  C4_4 
ROOT
ATOM      1  C1  LG1 d5015      26.639  25.778  72.134  0.00  0.00    -0.004 C 
ATOM      2  C2  LG1 d5015      26.239  26.481  73.435  0.00  0.00    -0.001 C 
ATOM      3  C3  LG1 d5015      26.536  25.616  74.717  0.00  0.00    -0.030 C 
ATOM      4  C4  LG1 d5015      26.097  26.652  75.805  0.00  0.00     0.063 C 
ATOM      5  C5  LG1 d5015      26.601  28.039  75.271  0.00  0.00     0.013 C 
ATOM      6  C6  LG1 d5015      26.894  27.851  73.739  0.00  0.00     0.006 C 
ATOM      7  C9  LG1 d5015      28.057  25.273  74.898  0.00  0.00     0.016 C 
ATOM      8  C10 LG1 d5015      25.653  24.355  74.591  0.00  0.00     0.011 C 
ATOM      9  C11 LG1 d5015      25.969  23.576  73.284  0.00  0.00     0.007 C 
ATOM     10  C12 LG1 d5015      25.804  24.460  72.020  0.00  0.00     0.002 C 
ATOM     11  C13 LG1 d5015      26.113  23.651  70.706  0.00  0.00    -0.016 C 
ATOM     12  C14 LG1 d5015      25.942  24.619  69.466  0.00  0.00    -0.068 C 
ATOM     13  C15 LG1 d5015      25.271  24.301  68.374  0.00  0.00     0.053 C 
ATOM     14  C16 LG1 d5015      24.731  22.966  68.173  0.00  0.00     0.149 C 
ATOM     15  C17 LG1 d5015      25.016  21.864  69.189  0.00  0.00     0.084 C 
ATOM     16  C18 LG1 d5015      25.100  22.480  70.608  0.00  0.00     0.022 C 
ATOM     17  O2  LG1 d5015      24.096  22.692  67.139  0.00  0.00    -0.293 OA
ATOM     18  C19 LG1 d5015      26.565  26.008  69.562  0.00  0.00     0.035 C 
ATOM     19  C20 LG1 d5015      26.292  26.679  70.922  0.00  0.00     0.010 C 
ATOM     20  C21 LG1 d5015      27.598  23.123  70.655  0.00  0.00     0.020 C 
ENDROOT
BRANCH   4  21
ATOM     21  C7  LG1 d5015      26.532  26.308  77.239  0.00  0.00     0.128 C 
ATOM     22  O1  LG1 d5015      27.201  27.091  77.878  0.00  0.00    -0.298 OA
ATOM     23  C8  LG1 d5015      26.118  25.010  77.839  0.00  0.00     0.091 C 
ENDBRANCH   4  21
TORSDOF 1
ENDMDL
