REMARK INTER + INTRA:          -6.932
REMARK INTER:                  -6.837
REMARK INTRA:                  -0.095
REMARK UNBOUND:                -0.204
REMARK  1 active torsions:
REMARK  status: ('A' for Active; 'I' for Inactive)
REMARK    1  A    between atoms: C7_7  and  C4_4 
ROOT
ATOM      1  C1  LG1 d5015      26.639  25.775  72.159  0.00  0.00    -0.004 C 
ATOM      2  C2  LG1 d5015      26.243  26.475  73.464  0.00  0.00    -0.001 C 
ATOM      3  C3  LG1 d5015      26.538  25.604  74.742  0.00  0.00    -0.030 C 
ATOM      4  C4  LG1 d5015      26.104  26.637  75.834  0.00  0.00     0.063 C 
ATOM      5  C5  LG1 d5015      26.613  28.024  75.306  0.00  0.00     0.013 C 
ATOM      6  C6  LG1 d5015      26.904  27.841  73.772  0.00  0.00     0.006 C 
ATOM      7  C9  LG1 d5015      28.058  25.254  74.920  0.00  0.00     0.016 C 
ATOM      8  C10 LG1 d5015      25.649  24.347  74.612  0.00  0.00     0.011 C 
ATOM      9  C11 LG1 d5015      25.962  23.572  73.301  0.00  0.00     0.007 C 
ATOM     10  C12 LG1 d5015      25.799  24.461  72.041  0.00  0.00     0.002 C 
ATOM     11  C13 LG1 d5015      26.103  23.656  70.724  0.00  0.00    -0.016 C 
ATOM     12  C14 LG1 d5015      25.935  24.630  69.488  0.00  0.00    -0.068 C 
ATOM     13  C15 LG1 d5015      25.261  24.319  68.395  0.00  0.00     0.053 C 
ATOM     14  C16 LG1 d5015      24.715  22.986  68.189  0.00  0.00     0.149 C 
ATOM     15  C17 LG1 d5015      24.997  21.880  69.201  0.00  0.00     0.084 C 
ATOM     16  C18 LG1 d5015      25.085  22.489  70.622  0.00  0.00     0.022 C 
ATOM     17  O2  LG1 d5015      24.078  22.720  67.154  0.00  0.00    -0.293 OA
ATOM     18  C19 LG1 d5015      26.563  26.016  69.588  0.00  0.00     0.035 C 
ATOM     19  C20 LG1 d5015      26.295  26.683  70.951  0.00  0.00     0.010 C 
ATOM     20  C21 LG1 d5015      27.586  23.122  70.669  0.00  0.00     0.020 C 
ENDROOT
BRANCH   4  21
ATOM     21  C7  LG1 d5015      26.539  26.286  77.266  0.00  0.00     0.128 C 
ATOM     22  O1  LG1 d5015      27.286  27.022  77.875  0.00  0.00    -0.298 OA
ATOM     23  C8  LG1 d5015      26.030  25.039  77.903  0.00  0.00     0.091 C 
ENDBRANCH   4  21
TORSDOF 1
ENDMDL
