REMARK INTER + INTRA:          -8.148
REMARK INTER:                  -7.958
REMARK INTRA:                  -0.190
REMARK UNBOUND:                -0.203
REMARK  1 active torsions:
REMARK  status: ('A' for Active; 'I' for Inactive)
REMARK    1  A    between atoms: C7_7  and  C4_4 
ROOT
ATOM      1  C1  LG1 d5015      26.197  23.759  70.844  0.00  0.00    -0.004 C 
ATOM      2  C2  LG1 d5015      25.100  23.627  69.782  0.00  0.00    -0.001 C 
ATOM      3  C3  LG1 d5015      24.016  24.765  69.874  0.00  0.00    -0.030 C 
ATOM      4  C4  LG1 d5015      23.151  24.364  68.633  0.00  0.00     0.063 C 
ATOM      5  C5  LG1 d5015      24.187  23.917  67.543  0.00  0.00     0.013 C 
ATOM      6  C6  LG1 d5015      25.537  23.636  68.297  0.00  0.00     0.006 C 
ATOM      7  C9  LG1 d5015      24.604  26.204  69.666  0.00  0.00     0.016 C 
ATOM      8  C10 LG1 d5015      23.338  24.593  71.252  0.00  0.00     0.011 C 
ATOM      9  C11 LG1 d5015      24.376  24.691  72.404  0.00  0.00     0.007 C 
ATOM     10  C12 LG1 d5015      25.522  23.657  72.252  0.00  0.00     0.002 C 
ATOM     11  C13 LG1 d5015      26.554  23.760  73.435  0.00  0.00    -0.016 C 
ATOM     12  C14 LG1 d5015      27.698  22.691  73.200  0.00  0.00    -0.068 C 
ATOM     13  C15 LG1 d5015      28.142  21.875  74.139  0.00  0.00     0.053 C 
ATOM     14  C16 LG1 d5015      27.692  21.981  75.518  0.00  0.00     0.149 C 
ATOM     15  C17 LG1 d5015      26.758  23.115  75.933  0.00  0.00     0.084 C 
ATOM     16  C18 LG1 d5015      25.806  23.454  74.760  0.00  0.00     0.022 C 
ATOM     17  O2  LG1 d5015      28.120  21.196  76.383  0.00  0.00    -0.293 OA
ATOM     18  C19 LG1 d5015      28.290  22.585  71.799  0.00  0.00     0.035 C 
ATOM     19  C20 LG1 d5015      27.207  22.592  70.704  0.00  0.00     0.010 C 
ATOM     20  C21 LG1 d5015      27.266  25.166  73.496  0.00  0.00     0.020 C 
ENDROOT
BRANCH   4  21
ATOM     21  C7  LG1 d5015      22.143  25.432  68.175  0.00  0.00     0.128 C 
ATOM     22  O1  LG1 d5015      21.263  25.799  68.923  0.00  0.00    -0.298 OA
ATOM     23  C8  LG1 d5015      22.262  26.016  66.810  0.00  0.00     0.091 C 
ENDBRANCH   4  21
TORSDOF 1
ENDMDL
