MODEL 1
REMARK VINA RESULT:    -7.488      0.000      0.000
REMARK INTER + INTRA:          -8.129
REMARK INTER:                  -7.931
REMARK INTRA:                  -0.198
REMARK UNBOUND:                -0.204
REMARK  1 active torsions:
REMARK  status: ('A' for Active; 'I' for Inactive)
REMARK    1  A    between atoms: C7_7  and  C4_4 
ROOT
ATOM      1  C1  LG1 d5015      26.172  23.751  70.824  0.00  0.00    -0.004 C 
ATOM      2  C2  LG1 d5015      25.063  23.623  69.774  0.00  0.00    -0.001 C 
ATOM      3  C3  LG1 d5015      23.983  24.763  69.879  0.00  0.00    -0.030 C 
ATOM      4  C4  LG1 d5015      23.103  24.366  68.647  0.00  0.00     0.063 C 
ATOM      5  C5  LG1 d5015      24.126  23.918  67.545  0.00  0.00     0.013 C 
ATOM      6  C6  LG1 d5015      25.484  23.633  68.284  0.00  0.00     0.006 C 
ATOM      7  C9  LG1 d5015      24.572  26.202  69.666  0.00  0.00     0.016 C 
ATOM      8  C10 LG1 d5015      23.319  24.591  71.264  0.00  0.00     0.011 C 
ATOM      9  C11 LG1 d5015      24.370  24.686  72.405  0.00  0.00     0.007 C 
ATOM     10  C12 LG1 d5015      25.511  23.649  72.238  0.00  0.00     0.002 C 
ATOM     11  C13 LG1 d5015      26.557  23.748  73.410  0.00  0.00    -0.016 C 
ATOM     12  C14 LG1 d5015      27.695  22.677  73.162  0.00  0.00    -0.068 C 
ATOM     13  C15 LG1 d5015      28.148  21.858  74.095  0.00  0.00     0.053 C 
ATOM     14  C16 LG1 d5015      27.713  21.964  75.479  0.00  0.00     0.149 C 
ATOM     15  C17 LG1 d5015      26.787  23.099  75.905  0.00  0.00     0.084 C 
ATOM     16  C18 LG1 d5015      25.822  23.442  74.743  0.00  0.00     0.022 C 
ATOM     17  O2  LG1 d5015      28.148  21.177  76.338  0.00  0.00    -0.293 OA
ATOM     18  C19 LG1 d5015      28.272  22.570  71.755  0.00  0.00     0.035 C 
ATOM     19  C20 LG1 d5015      27.177  22.581  70.671  0.00  0.00     0.010 C 
ATOM     20  C21 LG1 d5015      27.273  25.152  73.466  0.00  0.00     0.020 C 
ENDROOT
BRANCH   4  21
ATOM     21  C7  LG1 d5015      22.093  25.437  68.201  0.00  0.00     0.128 C 
ATOM     22  O1  LG1 d5015      21.205  25.787  68.950  0.00  0.00    -0.298 OA
ATOM     23  C8  LG1 d5015      22.217  26.045  66.848  0.00  0.00     0.091 C 
ENDBRANCH   4  21
TORSDOF 1
ENDMDL
MODEL 2
REMARK VINA RESULT:    -6.580      1.525      7.046
REMARK INTER + INTRA:          -7.169
REMARK INTER:                  -7.021
REMARK INTRA:                  -0.147
REMARK UNBOUND:                -0.204
REMARK  1 active torsions:
REMARK  status: ('A' for Active; 'I' for Inactive)
REMARK    1  A    between atoms: C7_7  and  C4_4 
ROOT
ATOM      1  C1  LG1 d5015      24.913  23.778  70.284  0.00  0.00    -0.004 C 
ATOM      2  C2  LG1 d5015      26.275  23.649  70.974  0.00  0.00    -0.001 C 
ATOM      3  C3  LG1 d5015      26.295  24.284  72.415  0.00  0.00    -0.030 C 
ATOM      4  C4  LG1 d5015      27.757  23.898  72.820  0.00  0.00     0.063 C 
ATOM      5  C5  LG1 d5015      27.967  22.450  72.251  0.00  0.00     0.013 C 
ATOM      6  C6  LG1 d5015      26.842  22.223  71.178  0.00  0.00     0.006 C 
ATOM      7  C9  LG1 d5015      25.279  23.614  73.405  0.00  0.00     0.016 C 
ATOM      8  C10 LG1 d5015      26.026  25.792  72.217  0.00  0.00     0.011 C 
ATOM      9  C11 LG1 d5015      24.668  26.031  71.501  0.00  0.00     0.007 C 
ATOM     10  C12 LG1 d5015      24.589  25.301  70.135  0.00  0.00     0.002 C 
ATOM     11  C13 LG1 d5015      23.214  25.567  69.418  0.00  0.00    -0.016 C 
ATOM     12  C14 LG1 d5015      23.200  24.778  68.045  0.00  0.00    -0.068 C 
ATOM     13  C15 LG1 d5015      22.822  25.311  66.897  0.00  0.00     0.053 C 
ATOM     14  C16 LG1 d5015      22.262  26.651  66.826  0.00  0.00     0.149 C 
ATOM     15  C17 LG1 d5015      22.007  27.443  68.105  0.00  0.00     0.084 C 
ATOM     16  C18 LG1 d5015      23.090  27.091  69.154  0.00  0.00     0.022 C 
ATOM     17  O2  LG1 d5015      21.920  27.133  65.731  0.00  0.00    -0.293 OA
ATOM     18  C19 LG1 d5015      23.684  23.332  68.056  0.00  0.00     0.035 C 
ATOM     19  C20 LG1 d5015      24.982  23.155  68.866  0.00  0.00     0.010 C 
ATOM     20  C21 LG1 d5015      21.984  25.033  70.248  0.00  0.00     0.020 C 
ENDROOT
BRANCH   4  21
ATOM     21  C7  LG1 d5015      28.080  24.065  74.314  0.00  0.00     0.128 C 
ATOM     22  O1  LG1 d5015      28.236  23.089  75.017  0.00  0.00    -0.298 OA
ATOM     23  C8  LG1 d5015      28.208  25.433  74.888  0.00  0.00     0.091 C 
ENDBRANCH   4  21
TORSDOF 1
ENDMDL
MODEL 3
REMARK VINA RESULT:    -6.380      2.311      7.023
REMARK INTER + INTRA:          -6.956
REMARK INTER:                  -6.806
REMARK INTRA:                  -0.151
REMARK UNBOUND:                -0.204
REMARK  1 active torsions:
REMARK  status: ('A' for Active; 'I' for Inactive)
REMARK    1  A    between atoms: C7_7  and  C4_4 
ROOT
ATOM      1  C1  LG1 d5015      26.319  24.684  70.402  0.00  0.00    -0.004 C 
ATOM      2  C2  LG1 d5015      27.261  24.020  71.412  0.00  0.00    -0.001 C 
ATOM      3  C3  LG1 d5015      26.805  24.226  72.904  0.00  0.00    -0.030 C 
ATOM      4  C4  LG1 d5015      27.912  23.373  73.607  0.00  0.00     0.063 C 
ATOM      5  C5  LG1 d5015      28.112  22.123  72.680  0.00  0.00     0.013 C 
ATOM      6  C6  LG1 d5015      27.482  22.493  71.288  0.00  0.00     0.006 C 
ATOM      7  C9  LG1 d5015      25.392  23.616  73.214  0.00  0.00     0.016 C 
ATOM      8  C10 LG1 d5015      26.864  25.749  73.159  0.00  0.00     0.011 C 
ATOM      9  C11 LG1 d5015      25.951  26.520  72.165  0.00  0.00     0.007 C 
ATOM     10  C12 LG1 d5015      26.311  26.222  70.687  0.00  0.00     0.002 C 
ATOM     11  C13 LG1 d5015      25.387  27.023  69.696  0.00  0.00    -0.016 C 
ATOM     12  C14 LG1 d5015      25.800  26.654  68.213  0.00  0.00    -0.068 C 
ATOM     13  C15 LG1 d5015      25.991  27.550  67.261  0.00  0.00     0.053 C 
ATOM     14  C16 LG1 d5015      25.711  28.961  67.473  0.00  0.00     0.149 C 
ATOM     15  C17 LG1 d5015      25.092  29.429  68.787  0.00  0.00     0.084 C 
ATOM     16  C18 LG1 d5015      25.607  28.539  69.946  0.00  0.00     0.022 C 
ATOM     17  O2  LG1 d5015      25.905  29.786  66.563  0.00  0.00    -0.293 OA
ATOM     18  C19 LG1 d5015      26.019  25.181  67.885  0.00  0.00     0.035 C 
ATOM     19  C20 LG1 d5015      26.849  24.459  68.963  0.00  0.00     0.010 C 
ATOM     20  C21 LG1 d5015      23.865  26.638  69.841  0.00  0.00     0.020 C 
ENDROOT
BRANCH   4  21
ATOM     21  C7  LG1 d5015      27.640  23.050  75.086  0.00  0.00     0.128 C 
ATOM     22  O1  LG1 d5015      27.431  23.945  75.877  0.00  0.00    -0.298 OA
ATOM     23  C8  LG1 d5015      27.626  21.631  75.537  0.00  0.00     0.091 C 
ENDBRANCH   4  21
TORSDOF 1
ENDMDL
MODEL 4
REMARK VINA RESULT:    -6.357      2.500      6.721
REMARK INTER + INTRA:          -6.932
REMARK INTER:                  -6.837
REMARK INTRA:                  -0.095
REMARK UNBOUND:                -0.204
REMARK  1 active torsions:
REMARK  status: ('A' for Active; 'I' for Inactive)
REMARK    1  A    between atoms: C7_7  and  C4_4 
ROOT
ATOM      1  C1  LG1 d5015      26.639  25.775  72.159  0.00  0.00    -0.004 C 
ATOM      2  C2  LG1 d5015      26.243  26.475  73.464  0.00  0.00    -0.001 C 
ATOM      3  C3  LG1 d5015      26.538  25.604  74.742  0.00  0.00    -0.030 C 
ATOM      4  C4  LG1 d5015      26.104  26.637  75.834  0.00  0.00     0.063 C 
ATOM      5  C5  LG1 d5015      26.613  28.024  75.306  0.00  0.00     0.013 C 
ATOM      6  C6  LG1 d5015      26.904  27.841  73.772  0.00  0.00     0.006 C 
ATOM      7  C9  LG1 d5015      28.058  25.254  74.920  0.00  0.00     0.016 C 
ATOM      8  C10 LG1 d5015      25.649  24.347  74.612  0.00  0.00     0.011 C 
ATOM      9  C11 LG1 d5015      25.962  23.572  73.301  0.00  0.00     0.007 C 
ATOM     10  C12 LG1 d5015      25.799  24.461  72.041  0.00  0.00     0.002 C 
ATOM     11  C13 LG1 d5015      26.103  23.656  70.724  0.00  0.00    -0.016 C 
ATOM     12  C14 LG1 d5015      25.935  24.630  69.488  0.00  0.00    -0.068 C 
ATOM     13  C15 LG1 d5015      25.261  24.319  68.395  0.00  0.00     0.053 C 
ATOM     14  C16 LG1 d5015      24.715  22.986  68.189  0.00  0.00     0.149 C 
ATOM     15  C17 LG1 d5015      24.997  21.880  69.201  0.00  0.00     0.084 C 
ATOM     16  C18 LG1 d5015      25.085  22.489  70.622  0.00  0.00     0.022 C 
ATOM     17  O2  LG1 d5015      24.078  22.720  67.154  0.00  0.00    -0.293 OA
ATOM     18  C19 LG1 d5015      26.563  26.016  69.588  0.00  0.00     0.035 C 
ATOM     19  C20 LG1 d5015      26.295  26.683  70.951  0.00  0.00     0.010 C 
ATOM     20  C21 LG1 d5015      27.586  23.122  70.669  0.00  0.00     0.020 C 
ENDROOT
BRANCH   4  21
ATOM     21  C7  LG1 d5015      26.539  26.286  77.266  0.00  0.00     0.128 C 
ATOM     22  O1  LG1 d5015      27.286  27.022  77.875  0.00  0.00    -0.298 OA
ATOM     23  C8  LG1 d5015      26.030  25.039  77.903  0.00  0.00     0.091 C 
ENDBRANCH   4  21
TORSDOF 1
ENDMDL
MODEL 5
REMARK VINA RESULT:    -6.286      2.036      3.965
REMARK INTER + INTRA:          -6.857
REMARK INTER:                  -6.654
REMARK INTRA:                  -0.204
REMARK UNBOUND:                -0.204
REMARK  1 active torsions:
REMARK  status: ('A' for Active; 'I' for Inactive)
REMARK    1  A    between atoms: C7_7  and  C4_4 
ROOT
ATOM      1  C1  LG1 d5015      23.422  24.613  69.792  0.00  0.00    -0.004 C 
ATOM      2  C2  LG1 d5015      22.783  25.923  69.319  0.00  0.00    -0.001 C 
ATOM      3  C3  LG1 d5015      23.023  26.206  67.789  0.00  0.00    -0.030 C 
ATOM      4  C4  LG1 d5015      22.186  27.522  67.661  0.00  0.00     0.063 C 
ATOM      5  C5  LG1 d5015      20.915  27.283  68.549  0.00  0.00     0.013 C 
ATOM      6  C6  LG1 d5015      21.253  26.078  69.499  0.00  0.00     0.006 C 
ATOM      7  C9  LG1 d5015      22.421  25.103  66.849  0.00  0.00     0.016 C 
ATOM      8  C10 LG1 d5015      24.551  26.360  67.622  0.00  0.00     0.011 C 
ATOM      9  C11 LG1 d5015      25.299  25.082  68.097  0.00  0.00     0.007 C 
ATOM     10  C12 LG1 d5015      24.967  24.720  69.568  0.00  0.00     0.002 C 
ATOM     11  C13 LG1 d5015      25.744  23.435  70.036  0.00  0.00    -0.016 C 
ATOM     12  C14 LG1 d5015      25.341  23.119  71.533  0.00  0.00    -0.068 C 
ATOM     13  C15 LG1 d5015      26.214  22.838  72.484  0.00  0.00     0.053 C 
ATOM     14  C16 LG1 d5015      27.630  22.673  72.195  0.00  0.00     0.149 C 
ATOM     15  C17 LG1 d5015      28.128  22.727  70.754  0.00  0.00     0.084 C 
ATOM     16  C18 LG1 d5015      27.266  23.729  69.947  0.00  0.00     0.022 C 
ATOM     17  O2  LG1 d5015      28.434  22.415  73.109  0.00  0.00    -0.293 OA
ATOM     18  C19 LG1 d5015      23.861  23.178  71.895  0.00  0.00     0.035 C 
ATOM     19  C20 LG1 d5015      23.163  24.420  71.308  0.00  0.00     0.010 C 
ATOM     20  C21 LG1 d5015      25.363  22.157  69.195  0.00  0.00     0.020 C 
ENDROOT
BRANCH   4  21
ATOM     21  C7  LG1 d5015      21.898  27.967  66.217  0.00  0.00     0.128 C 
ATOM     22  O1  LG1 d5015      22.803  28.344  65.503  0.00  0.00    -0.298 OA
ATOM     23  C8  LG1 d5015      20.502  27.925  65.701  0.00  0.00     0.091 C 
ENDBRANCH   4  21
TORSDOF 1
ENDMDL
