REMARK INTER + INTRA:          -6.918
REMARK INTER:                  -6.819
REMARK INTRA:                  -0.099
REMARK UNBOUND:                -0.203
REMARK  1 active torsions:
REMARK  status: ('A' for Active; 'I' for Inactive)
REMARK    1  A    between atoms: C7_7  and  C4_4 
ROOT
ATOM      1  C1  LG1 d5015      26.625  25.768  72.162  0.00  0.00    -0.004 C 
ATOM      2  C2  LG1 d5015      26.237  26.479  73.463  0.00  0.00    -0.001 C 
ATOM      3  C3  LG1 d5015      26.545  25.620  74.747  0.00  0.00    -0.030 C 
ATOM      4  C4  LG1 d5015      26.116  26.662  75.833  0.00  0.00     0.063 C 
ATOM      5  C5  LG1 d5015      26.617  28.046  75.288  0.00  0.00     0.013 C 
ATOM      6  C6  LG1 d5015      26.896  27.849  73.754  0.00  0.00     0.006 C 
ATOM      7  C9  LG1 d5015      28.067  25.276  74.916  0.00  0.00     0.016 C 
ATOM      8  C10 LG1 d5015      25.659  24.360  74.635  0.00  0.00     0.011 C 
ATOM      9  C11 LG1 d5015      25.963  23.574  73.329  0.00  0.00     0.007 C 
ATOM     10  C12 LG1 d5015      25.788  24.451  72.063  0.00  0.00     0.002 C 
ATOM     11  C13 LG1 d5015      26.084  23.635  70.750  0.00  0.00    -0.016 C 
ATOM     12  C14 LG1 d5015      25.903  24.597  69.507  0.00  0.00    -0.068 C 
ATOM     13  C15 LG1 d5015      25.222  24.274  68.422  0.00  0.00     0.053 C 
ATOM     14  C16 LG1 d5015      24.678  22.938  68.233  0.00  0.00     0.149 C 
ATOM     15  C17 LG1 d5015      24.971  21.841  69.252  0.00  0.00     0.084 C 
ATOM     16  C18 LG1 d5015      25.068  22.464  70.667  0.00  0.00     0.022 C 
ATOM     17  O2  LG1 d5015      24.034  22.660  67.205  0.00  0.00    -0.293 OA
ATOM     18  C19 LG1 d5015      26.528  25.986  69.590  0.00  0.00     0.035 C 
ATOM     19  C20 LG1 d5015      26.268  26.664  70.949  0.00  0.00     0.010 C 
ATOM     20  C21 LG1 d5015      27.568  23.105  70.689  0.00  0.00     0.020 C 
ENDROOT
BRANCH   4  21
ATOM     21  C7  LG1 d5015      26.563  26.325  77.265  0.00  0.00     0.128 C 
ATOM     22  O1  LG1 d5015      27.317  27.066  77.859  0.00  0.00    -0.298 OA
ATOM     23  C8  LG1 d5015      26.057  25.086  77.919  0.00  0.00     0.091 C 
ENDBRANCH   4  21
TORSDOF 1
ENDMDL
