MODEL 1
REMARK VINA RESULT:    -7.506      0.000      0.000
REMARK INTER + INTRA:          -8.148
REMARK INTER:                  -7.958
REMARK INTRA:                  -0.190
REMARK UNBOUND:                -0.203
REMARK  1 active torsions:
REMARK  status: ('A' for Active; 'I' for Inactive)
REMARK    1  A    between atoms: C7_7  and  C4_4 
ROOT
ATOM      1  C1  LG1 d5015      26.197  23.759  70.844  0.00  0.00    -0.004 C 
ATOM      2  C2  LG1 d5015      25.100  23.627  69.782  0.00  0.00    -0.001 C 
ATOM      3  C3  LG1 d5015      24.016  24.765  69.874  0.00  0.00    -0.030 C 
ATOM      4  C4  LG1 d5015      23.151  24.364  68.633  0.00  0.00     0.063 C 
ATOM      5  C5  LG1 d5015      24.187  23.917  67.543  0.00  0.00     0.013 C 
ATOM      6  C6  LG1 d5015      25.537  23.636  68.297  0.00  0.00     0.006 C 
ATOM      7  C9  LG1 d5015      24.604  26.204  69.666  0.00  0.00     0.016 C 
ATOM      8  C10 LG1 d5015      23.338  24.593  71.252  0.00  0.00     0.011 C 
ATOM      9  C11 LG1 d5015      24.376  24.691  72.404  0.00  0.00     0.007 C 
ATOM     10  C12 LG1 d5015      25.522  23.657  72.252  0.00  0.00     0.002 C 
ATOM     11  C13 LG1 d5015      26.554  23.760  73.435  0.00  0.00    -0.016 C 
ATOM     12  C14 LG1 d5015      27.698  22.691  73.200  0.00  0.00    -0.068 C 
ATOM     13  C15 LG1 d5015      28.142  21.875  74.139  0.00  0.00     0.053 C 
ATOM     14  C16 LG1 d5015      27.692  21.981  75.518  0.00  0.00     0.149 C 
ATOM     15  C17 LG1 d5015      26.758  23.115  75.933  0.00  0.00     0.084 C 
ATOM     16  C18 LG1 d5015      25.806  23.454  74.760  0.00  0.00     0.022 C 
ATOM     17  O2  LG1 d5015      28.120  21.196  76.383  0.00  0.00    -0.293 OA
ATOM     18  C19 LG1 d5015      28.290  22.585  71.799  0.00  0.00     0.035 C 
ATOM     19  C20 LG1 d5015      27.207  22.592  70.704  0.00  0.00     0.010 C 
ATOM     20  C21 LG1 d5015      27.266  25.166  73.496  0.00  0.00     0.020 C 
ENDROOT
BRANCH   4  21
ATOM     21  C7  LG1 d5015      22.143  25.432  68.175  0.00  0.00     0.128 C 
ATOM     22  O1  LG1 d5015      21.263  25.799  68.923  0.00  0.00    -0.298 OA
ATOM     23  C8  LG1 d5015      22.262  26.016  66.810  0.00  0.00     0.091 C 
ENDBRANCH   4  21
TORSDOF 1
ENDMDL
MODEL 2
REMARK VINA RESULT:    -6.564      1.534      7.052
REMARK INTER + INTRA:          -7.151
REMARK INTER:                  -7.003
REMARK INTRA:                  -0.147
REMARK UNBOUND:                -0.203
REMARK  1 active torsions:
REMARK  status: ('A' for Active; 'I' for Inactive)
REMARK    1  A    between atoms: C7_7  and  C4_4 
ROOT
ATOM      1  C1  LG1 d5015      24.896  23.794  70.290  0.00  0.00    -0.004 C 
ATOM      2  C2  LG1 d5015      26.255  23.653  70.983  0.00  0.00    -0.001 C 
ATOM      3  C3  LG1 d5015      26.283  24.300  72.418  0.00  0.00    -0.030 C 
ATOM      4  C4  LG1 d5015      27.739  23.897  72.828  0.00  0.00     0.063 C 
ATOM      5  C5  LG1 d5015      27.929  22.442  72.272  0.00  0.00     0.013 C 
ATOM      6  C6  LG1 d5015      26.802  22.221  71.199  0.00  0.00     0.006 C 
ATOM      7  C9  LG1 d5015      25.256  23.652  73.413  0.00  0.00     0.016 C 
ATOM      8  C10 LG1 d5015      26.035  25.810  72.207  0.00  0.00     0.011 C 
ATOM      9  C11 LG1 d5015      24.680  26.061  71.488  0.00  0.00     0.007 C 
ATOM     10  C12 LG1 d5015      24.592  25.320  70.128  0.00  0.00     0.002 C 
ATOM     11  C13 LG1 d5015      23.221  25.599  69.407  0.00  0.00    -0.016 C 
ATOM     12  C14 LG1 d5015      23.198  24.798  68.042  0.00  0.00    -0.068 C 
ATOM     13  C15 LG1 d5015      22.829  25.326  66.888  0.00  0.00     0.053 C 
ATOM     14  C16 LG1 d5015      22.287  26.673  66.805  0.00  0.00     0.149 C 
ATOM     15  C17 LG1 d5015      22.042  27.480  68.077  0.00  0.00     0.084 C 
ATOM     16  C18 LG1 d5015      23.119  27.122  69.130  0.00  0.00     0.022 C 
ATOM     17  O2  LG1 d5015      21.952  27.151  65.706  0.00  0.00    -0.293 OA
ATOM     18  C19 LG1 d5015      23.662  23.346  68.065  0.00  0.00     0.035 C 
ATOM     19  C20 LG1 d5015      24.958  23.158  68.878  0.00  0.00     0.010 C 
ATOM     20  C21 LG1 d5015      21.984  25.089  70.241  0.00  0.00     0.020 C 
ENDROOT
BRANCH   4  21
ATOM     21  C7  LG1 d5015      28.063  24.073  74.321  0.00  0.00     0.128 C 
ATOM     22  O1  LG1 d5015      28.205  23.101  75.032  0.00  0.00    -0.298 OA
ATOM     23  C8  LG1 d5015      28.209  25.444  74.884  0.00  0.00     0.091 C 
ENDBRANCH   4  21
TORSDOF 1
ENDMDL
MODEL 3
REMARK VINA RESULT:    -6.367      2.270      7.012
REMARK INTER + INTRA:          -6.942
REMARK INTER:                  -6.760
REMARK INTRA:                  -0.181
REMARK UNBOUND:                -0.203
REMARK  1 active torsions:
REMARK  status: ('A' for Active; 'I' for Inactive)
REMARK    1  A    between atoms: C7_7  and  C4_4 
ROOT
ATOM      1  C1  LG1 d5015      26.397  24.580  70.484  0.00  0.00    -0.004 C 
ATOM      2  C2  LG1 d5015      27.316  23.987  71.558  0.00  0.00    -0.001 C 
ATOM      3  C3  LG1 d5015      26.787  24.229  73.021  0.00  0.00    -0.030 C 
ATOM      4  C4  LG1 d5015      27.891  23.441  73.802  0.00  0.00     0.063 C 
ATOM      5  C5  LG1 d5015      28.174  22.167  72.930  0.00  0.00     0.013 C 
ATOM      6  C6  LG1 d5015      27.595  22.465  71.500  0.00  0.00     0.006 C 
ATOM      7  C9  LG1 d5015      25.384  23.580  73.291  0.00  0.00     0.016 C 
ATOM      8  C10 LG1 d5015      26.782  25.761  73.221  0.00  0.00     0.011 C 
ATOM      9  C11 LG1 d5015      25.888  26.463  72.161  0.00  0.00     0.007 C 
ATOM     10  C12 LG1 d5015      26.323  26.126  70.711  0.00  0.00     0.002 C 
ATOM     11  C13 LG1 d5015      25.418  26.857  69.652  0.00  0.00    -0.016 C 
ATOM     12  C14 LG1 d5015      25.909  26.452  68.203  0.00  0.00    -0.068 C 
ATOM     13  C15 LG1 d5015      26.110  27.319  67.228  0.00  0.00     0.053 C 
ATOM     14  C16 LG1 d5015      25.773  28.726  67.376  0.00  0.00     0.149 C 
ATOM     15  C17 LG1 d5015      25.080  29.217  68.644  0.00  0.00     0.084 C 
ATOM     16  C18 LG1 d5015      25.574  28.388  69.856  0.00  0.00     0.022 C 
ATOM     17  O2  LG1 d5015      25.979  29.525  66.445  0.00  0.00    -0.293 OA
ATOM     18  C19 LG1 d5015      26.192  24.977  67.940  0.00  0.00     0.035 C 
ATOM     19  C20 LG1 d5015      26.999  24.323  69.079  0.00  0.00     0.010 C 
ATOM     20  C21 LG1 d5015      23.905  26.423  69.746  0.00  0.00     0.020 C 
ENDROOT
BRANCH   4  21
ATOM     21  C7  LG1 d5015      27.564  23.162  75.278  0.00  0.00     0.128 C 
ATOM     22  O1  LG1 d5015      27.362  24.081  76.042  0.00  0.00    -0.298 OA
ATOM     23  C8  LG1 d5015      27.489  21.754  75.759  0.00  0.00     0.091 C 
ENDBRANCH   4  21
TORSDOF 1
ENDMDL
MODEL 4
REMARK VINA RESULT:    -6.344      2.477      6.720
REMARK INTER + INTRA:          -6.918
REMARK INTER:                  -6.819
REMARK INTRA:                  -0.099
REMARK UNBOUND:                -0.203
REMARK  1 active torsions:
REMARK  status: ('A' for Active; 'I' for Inactive)
REMARK    1  A    between atoms: C7_7  and  C4_4 
ROOT
ATOM      1  C1  LG1 d5015      26.625  25.768  72.162  0.00  0.00    -0.004 C 
ATOM      2  C2  LG1 d5015      26.237  26.479  73.463  0.00  0.00    -0.001 C 
ATOM      3  C3  LG1 d5015      26.545  25.620  74.747  0.00  0.00    -0.030 C 
ATOM      4  C4  LG1 d5015      26.116  26.662  75.833  0.00  0.00     0.063 C 
ATOM      5  C5  LG1 d5015      26.617  28.046  75.288  0.00  0.00     0.013 C 
ATOM      6  C6  LG1 d5015      26.896  27.849  73.754  0.00  0.00     0.006 C 
ATOM      7  C9  LG1 d5015      28.067  25.276  74.916  0.00  0.00     0.016 C 
ATOM      8  C10 LG1 d5015      25.659  24.360  74.635  0.00  0.00     0.011 C 
ATOM      9  C11 LG1 d5015      25.963  23.574  73.329  0.00  0.00     0.007 C 
ATOM     10  C12 LG1 d5015      25.788  24.451  72.063  0.00  0.00     0.002 C 
ATOM     11  C13 LG1 d5015      26.084  23.635  70.750  0.00  0.00    -0.016 C 
ATOM     12  C14 LG1 d5015      25.903  24.597  69.507  0.00  0.00    -0.068 C 
ATOM     13  C15 LG1 d5015      25.222  24.274  68.422  0.00  0.00     0.053 C 
ATOM     14  C16 LG1 d5015      24.678  22.938  68.233  0.00  0.00     0.149 C 
ATOM     15  C17 LG1 d5015      24.971  21.841  69.252  0.00  0.00     0.084 C 
ATOM     16  C18 LG1 d5015      25.068  22.464  70.667  0.00  0.00     0.022 C 
ATOM     17  O2  LG1 d5015      24.034  22.660  67.205  0.00  0.00    -0.293 OA
ATOM     18  C19 LG1 d5015      26.528  25.986  69.590  0.00  0.00     0.035 C 
ATOM     19  C20 LG1 d5015      26.268  26.664  70.949  0.00  0.00     0.010 C 
ATOM     20  C21 LG1 d5015      27.568  23.105  70.689  0.00  0.00     0.020 C 
ENDROOT
BRANCH   4  21
ATOM     21  C7  LG1 d5015      26.563  26.325  77.265  0.00  0.00     0.128 C 
ATOM     22  O1  LG1 d5015      27.317  27.066  77.859  0.00  0.00    -0.298 OA
ATOM     23  C8  LG1 d5015      26.057  25.086  77.919  0.00  0.00     0.091 C 
ENDBRANCH   4  21
TORSDOF 1
ENDMDL
MODEL 5
REMARK VINA RESULT:    -6.271      2.010      3.941
REMARK INTER + INTRA:          -6.840
REMARK INTER:                  -6.638
REMARK INTRA:                  -0.203
REMARK UNBOUND:                -0.203
REMARK  1 active torsions:
REMARK  status: ('A' for Active; 'I' for Inactive)
REMARK    1  A    between atoms: C7_7  and  C4_4 
ROOT
ATOM      1  C1  LG1 d5015      23.458  24.621  69.819  0.00  0.00    -0.004 C 
ATOM      2  C2  LG1 d5015      22.831  25.928  69.322  0.00  0.00    -0.001 C 
ATOM      3  C3  LG1 d5015      23.092  26.192  67.792  0.00  0.00    -0.030 C 
ATOM      4  C4  LG1 d5015      22.264  27.510  67.637  0.00  0.00     0.063 C 
ATOM      5  C5  LG1 d5015      20.980  27.289  68.513  0.00  0.00     0.013 C 
ATOM      6  C6  LG1 d5015      21.300  26.093  69.482  0.00  0.00     0.006 C 
ATOM      7  C9  LG1 d5015      22.495  25.080  66.858  0.00  0.00     0.016 C 
ATOM      8  C10 LG1 d5015      24.623  26.336  67.642  0.00  0.00     0.011 C 
ATOM      9  C11 LG1 d5015      25.358  25.061  68.141  0.00  0.00     0.007 C 
ATOM     10  C12 LG1 d5015      25.006  24.718  69.612  0.00  0.00     0.002 C 
ATOM     11  C13 LG1 d5015      25.771  23.435  70.105  0.00  0.00    -0.016 C 
ATOM     12  C14 LG1 d5015      25.348  23.139  71.601  0.00  0.00    -0.068 C 
ATOM     13  C15 LG1 d5015      26.207  22.866  72.566  0.00  0.00     0.053 C 
ATOM     14  C16 LG1 d5015      27.626  22.690  72.297  0.00  0.00     0.149 C 
ATOM     15  C17 LG1 d5015      28.142  22.723  70.861  0.00  0.00     0.084 C 
ATOM     16  C18 LG1 d5015      27.295  23.720  70.031  0.00  0.00     0.022 C 
ATOM     17  O2  LG1 d5015      28.417  22.439  73.223  0.00  0.00    -0.293 OA
ATOM     18  C19 LG1 d5015      23.864  23.209  71.944  0.00  0.00     0.035 C 
ATOM     19  C20 LG1 d5015      23.180  24.448  71.334  0.00  0.00     0.010 C 
ATOM     20  C21 LG1 d5015      25.393  22.148  69.275  0.00  0.00     0.020 C 
ENDROOT
BRANCH   4  21
ATOM     21  C7  LG1 d5015      21.996  27.940  66.185  0.00  0.00     0.128 C 
ATOM     22  O1  LG1 d5015      22.911  28.307  65.480  0.00  0.00    -0.298 OA
ATOM     23  C8  LG1 d5015      20.606  27.892  65.650  0.00  0.00     0.091 C 
ENDBRANCH   4  21
TORSDOF 1
ENDMDL
