REMARK INTER + INTRA:          -8.129
REMARK INTER:                  -7.931
REMARK INTRA:                  -0.198
REMARK UNBOUND:                -0.204
REMARK  1 active torsions:
REMARK  status: ('A' for Active; 'I' for Inactive)
REMARK    1  A    between atoms: C7_7  and  C4_4 
ROOT
ATOM      1  C1  LG1 d5015      26.172  23.751  70.824  0.00  0.00    -0.004 C 
ATOM      2  C2  LG1 d5015      25.063  23.623  69.774  0.00  0.00    -0.001 C 
ATOM      3  C3  LG1 d5015      23.983  24.763  69.879  0.00  0.00    -0.030 C 
ATOM      4  C4  LG1 d5015      23.103  24.366  68.647  0.00  0.00     0.063 C 
ATOM      5  C5  LG1 d5015      24.126  23.918  67.545  0.00  0.00     0.013 C 
ATOM      6  C6  LG1 d5015      25.484  23.633  68.284  0.00  0.00     0.006 C 
ATOM      7  C9  LG1 d5015      24.572  26.202  69.666  0.00  0.00     0.016 C 
ATOM      8  C10 LG1 d5015      23.319  24.591  71.264  0.00  0.00     0.011 C 
ATOM      9  C11 LG1 d5015      24.370  24.686  72.405  0.00  0.00     0.007 C 
ATOM     10  C12 LG1 d5015      25.511  23.649  72.238  0.00  0.00     0.002 C 
ATOM     11  C13 LG1 d5015      26.557  23.748  73.410  0.00  0.00    -0.016 C 
ATOM     12  C14 LG1 d5015      27.695  22.677  73.162  0.00  0.00    -0.068 C 
ATOM     13  C15 LG1 d5015      28.148  21.858  74.095  0.00  0.00     0.053 C 
ATOM     14  C16 LG1 d5015      27.713  21.964  75.479  0.00  0.00     0.149 C 
ATOM     15  C17 LG1 d5015      26.787  23.099  75.905  0.00  0.00     0.084 C 
ATOM     16  C18 LG1 d5015      25.822  23.442  74.743  0.00  0.00     0.022 C 
ATOM     17  O2  LG1 d5015      28.148  21.177  76.338  0.00  0.00    -0.293 OA
ATOM     18  C19 LG1 d5015      28.272  22.570  71.755  0.00  0.00     0.035 C 
ATOM     19  C20 LG1 d5015      27.177  22.581  70.671  0.00  0.00     0.010 C 
ATOM     20  C21 LG1 d5015      27.273  25.152  73.466  0.00  0.00     0.020 C 
ENDROOT
BRANCH   4  21
ATOM     21  C7  LG1 d5015      22.093  25.437  68.201  0.00  0.00     0.128 C 
ATOM     22  O1  LG1 d5015      21.205  25.787  68.950  0.00  0.00    -0.298 OA
ATOM     23  C8  LG1 d5015      22.217  26.045  66.848  0.00  0.00     0.091 C 
ENDBRANCH   4  21
TORSDOF 1
ENDMDL
