REMARK INTER + INTRA:          -7.151
REMARK INTER:                  -7.003
REMARK INTRA:                  -0.147
REMARK UNBOUND:                -0.203
REMARK  1 active torsions:
REMARK  status: ('A' for Active; 'I' for Inactive)
REMARK    1  A    between atoms: C7_7  and  C4_4 
ROOT
ATOM      1  C1  LG1 d5015      24.896  23.794  70.290  0.00  0.00    -0.004 C 
ATOM      2  C2  LG1 d5015      26.255  23.653  70.983  0.00  0.00    -0.001 C 
ATOM      3  C3  LG1 d5015      26.283  24.300  72.418  0.00  0.00    -0.030 C 
ATOM      4  C4  LG1 d5015      27.739  23.897  72.828  0.00  0.00     0.063 C 
ATOM      5  C5  LG1 d5015      27.929  22.442  72.272  0.00  0.00     0.013 C 
ATOM      6  C6  LG1 d5015      26.802  22.221  71.199  0.00  0.00     0.006 C 
ATOM      7  C9  LG1 d5015      25.256  23.652  73.413  0.00  0.00     0.016 C 
ATOM      8  C10 LG1 d5015      26.035  25.810  72.207  0.00  0.00     0.011 C 
ATOM      9  C11 LG1 d5015      24.680  26.061  71.488  0.00  0.00     0.007 C 
ATOM     10  C12 LG1 d5015      24.592  25.320  70.128  0.00  0.00     0.002 C 
ATOM     11  C13 LG1 d5015      23.221  25.599  69.407  0.00  0.00    -0.016 C 
ATOM     12  C14 LG1 d5015      23.198  24.798  68.042  0.00  0.00    -0.068 C 
ATOM     13  C15 LG1 d5015      22.829  25.326  66.888  0.00  0.00     0.053 C 
ATOM     14  C16 LG1 d5015      22.287  26.673  66.805  0.00  0.00     0.149 C 
ATOM     15  C17 LG1 d5015      22.042  27.480  68.077  0.00  0.00     0.084 C 
ATOM     16  C18 LG1 d5015      23.119  27.122  69.130  0.00  0.00     0.022 C 
ATOM     17  O2  LG1 d5015      21.952  27.151  65.706  0.00  0.00    -0.293 OA
ATOM     18  C19 LG1 d5015      23.662  23.346  68.065  0.00  0.00     0.035 C 
ATOM     19  C20 LG1 d5015      24.958  23.158  68.878  0.00  0.00     0.010 C 
ATOM     20  C21 LG1 d5015      21.984  25.089  70.241  0.00  0.00     0.020 C 
ENDROOT
BRANCH   4  21
ATOM     21  C7  LG1 d5015      28.063  24.073  74.321  0.00  0.00     0.128 C 
ATOM     22  O1  LG1 d5015      28.205  23.101  75.032  0.00  0.00    -0.298 OA
ATOM     23  C8  LG1 d5015      28.209  25.444  74.884  0.00  0.00     0.091 C 
ENDBRANCH   4  21
TORSDOF 1
ENDMDL
