REMARK INTER + INTRA:          -7.128
REMARK INTER:                  -6.981
REMARK INTRA:                  -0.147
REMARK UNBOUND:                -0.200
REMARK  1 active torsions:
REMARK  status: ('A' for Active; 'I' for Inactive)
REMARK    1  A    between atoms: C7_7  and  C4_4 
ROOT
ATOM      1  C1  LG1 d5015      24.893  23.797  70.289  0.00  0.00    -0.004 C 
ATOM      2  C2  LG1 d5015      26.257  23.652  70.973  0.00  0.00    -0.001 C 
ATOM      3  C3  LG1 d5015      26.295  24.294  72.409  0.00  0.00    -0.030 C 
ATOM      4  C4  LG1 d5015      27.753  23.889  72.808  0.00  0.00     0.063 C 
ATOM      5  C5  LG1 d5015      27.937  22.435  72.247  0.00  0.00     0.013 C 
ATOM      6  C6  LG1 d5015      26.803  22.219  71.181  0.00  0.00     0.006 C 
ATOM      7  C9  LG1 d5015      25.274  23.646  73.409  0.00  0.00     0.016 C 
ATOM      8  C10 LG1 d5015      26.048  25.806  72.204  0.00  0.00     0.011 C 
ATOM      9  C11 LG1 d5015      24.689  26.061  71.494  0.00  0.00     0.007 C 
ATOM     10  C12 LG1 d5015      24.591  25.324  70.133  0.00  0.00     0.002 C 
ATOM     11  C13 LG1 d5015      23.216  25.607  69.421  0.00  0.00    -0.016 C 
ATOM     12  C14 LG1 d5015      23.183  24.811  68.054  0.00  0.00    -0.068 C 
ATOM     13  C15 LG1 d5015      22.807  25.342  66.905  0.00  0.00     0.053 C 
ATOM     14  C16 LG1 d5015      22.267  26.691  66.828  0.00  0.00     0.149 C 
ATOM     15  C17 LG1 d5015      22.031  27.494  68.104  0.00  0.00     0.084 C 
ATOM     16  C18 LG1 d5015      23.115  27.132  69.150  0.00  0.00     0.022 C 
ATOM     17  O2  LG1 d5015      21.926  27.172  65.733  0.00  0.00    -0.293 OA
ATOM     18  C19 LG1 d5015      23.645  23.357  68.070  0.00  0.00     0.035 C 
ATOM     19  C20 LG1 d5015      24.945  23.165  68.874  0.00  0.00     0.010 C 
ATOM     20  C21 LG1 d5015      21.983  25.096  70.262  0.00  0.00     0.020 C 
ENDROOT
BRANCH   4  21
ATOM     21  C7  LG1 d5015      28.087  24.059  74.300  0.00  0.00     0.128 C 
ATOM     22  O1  LG1 d5015      28.231  23.085  75.007  0.00  0.00    -0.298 OA
ATOM     23  C8  LG1 d5015      28.238  25.429  74.865  0.00  0.00     0.091 C 
ENDBRANCH   4  21
TORSDOF 1
ENDMDL
