REMARK INTER + INTRA:          -6.922
REMARK INTER:                  -6.833
REMARK INTRA:                  -0.090
REMARK UNBOUND:                -0.204
REMARK  1 active torsions:
REMARK  status: ('A' for Active; 'I' for Inactive)
REMARK    1  A    between atoms: C7_7  and  C4_4 
ROOT
ATOM      1  C1  LG1 d5015      26.640  25.779  72.144  0.00  0.00    -0.004 C 
ATOM      2  C2  LG1 d5015      26.237  26.472  73.449  0.00  0.00    -0.001 C 
ATOM      3  C3  LG1 d5015      26.528  25.597  74.725  0.00  0.00    -0.030 C 
ATOM      4  C4  LG1 d5015      26.087  26.625  75.819  0.00  0.00     0.063 C 
ATOM      5  C5  LG1 d5015      26.595  28.015  75.299  0.00  0.00     0.013 C 
ATOM      6  C6  LG1 d5015      26.893  27.838  73.766  0.00  0.00     0.006 C 
ATOM      7  C9  LG1 d5015      28.048  25.250  74.908  0.00  0.00     0.016 C 
ATOM      8  C10 LG1 d5015      25.643  24.338  74.585  0.00  0.00     0.011 C 
ATOM      9  C11 LG1 d5015      25.963  23.569  73.273  0.00  0.00     0.007 C 
ATOM     10  C12 LG1 d5015      25.804  24.463  72.016  0.00  0.00     0.002 C 
ATOM     11  C13 LG1 d5015      26.116  23.665  70.697  0.00  0.00    -0.016 C 
ATOM     12  C14 LG1 d5015      25.951  24.644  69.464  0.00  0.00    -0.068 C 
ATOM     13  C15 LG1 d5015      25.282  24.336  68.367  0.00  0.00     0.053 C 
ATOM     14  C16 LG1 d5015      24.741  23.002  68.153  0.00  0.00     0.149 C 
ATOM     15  C17 LG1 d5015      25.021  21.892  69.161  0.00  0.00     0.084 C 
ATOM     16  C18 LG1 d5015      25.101  22.496  70.585  0.00  0.00     0.022 C 
ATOM     17  O2  LG1 d5015      24.109  22.738  67.115  0.00  0.00    -0.293 OA
ATOM     18  C19 LG1 d5015      26.575  26.031  69.573  0.00  0.00     0.035 C 
ATOM     19  C20 LG1 d5015      26.299  26.691  70.938  0.00  0.00     0.010 C 
ATOM     20  C21 LG1 d5015      27.600  23.135  70.646  0.00  0.00     0.020 C 
ENDROOT
BRANCH   4  21
ATOM     21  C7  LG1 d5015      26.516  26.268  77.252  0.00  0.00     0.128 C 
ATOM     22  O1  LG1 d5015      27.251  27.008  77.871  0.00  0.00    -0.298 OA
ATOM     23  C8  LG1 d5015      26.016  25.011  77.877  0.00  0.00     0.091 C 
ENDBRANCH   4  21
TORSDOF 1
ENDMDL
