REMARK INTER + INTRA:          -8.133
REMARK INTER:                  -7.937
REMARK INTRA:                  -0.196
REMARK UNBOUND:                -0.204
REMARK  1 active torsions:
REMARK  status: ('A' for Active; 'I' for Inactive)
REMARK    1  A    between atoms: C7_7  and  C4_4 
ROOT
ATOM      1  C1  LG1 d5015      26.181  23.728  70.825  0.00  0.00    -0.004 C 
ATOM      2  C2  LG1 d5015      25.072  23.600  69.775  0.00  0.00    -0.001 C 
ATOM      3  C3  LG1 d5015      24.006  24.755  69.864  0.00  0.00    -0.030 C 
ATOM      4  C4  LG1 d5015      23.124  24.354  68.636  0.00  0.00     0.063 C 
ATOM      5  C5  LG1 d5015      24.142  23.879  67.541  0.00  0.00     0.013 C 
ATOM      6  C6  LG1 d5015      25.495  23.586  68.286  0.00  0.00     0.006 C 
ATOM      7  C9  LG1 d5015      24.615  26.184  69.633  0.00  0.00     0.016 C 
ATOM      8  C10 LG1 d5015      23.340  24.610  71.250  0.00  0.00     0.011 C 
ATOM      9  C11 LG1 d5015      24.390  24.705  72.391  0.00  0.00     0.007 C 
ATOM     10  C12 LG1 d5015      25.518  23.652  72.240  0.00  0.00     0.002 C 
ATOM     11  C13 LG1 d5015      26.563  23.753  73.411  0.00  0.00    -0.016 C 
ATOM     12  C14 LG1 d5015      27.688  22.664  73.179  0.00  0.00    -0.068 C 
ATOM     13  C15 LG1 d5015      28.129  21.852  74.122  0.00  0.00     0.053 C 
ATOM     14  C16 LG1 d5015      27.694  21.981  75.505  0.00  0.00     0.149 C 
ATOM     15  C17 LG1 d5015      26.782  23.133  75.915  0.00  0.00     0.084 C 
ATOM     16  C18 LG1 d5015      25.824  23.474  74.747  0.00  0.00     0.022 C 
ATOM     17  O2  LG1 d5015      28.118  21.199  76.374  0.00  0.00    -0.293 OA
ATOM     18  C19 LG1 d5015      28.266  22.532  71.774  0.00  0.00     0.035 C 
ATOM     19  C20 LG1 d5015      27.172  22.543  70.688  0.00  0.00     0.010 C 
ATOM     20  C21 LG1 d5015      27.298  25.148  73.450  0.00  0.00     0.020 C 
ENDROOT
BRANCH   4  21
ATOM     21  C7  LG1 d5015      22.128  25.432  68.175  0.00  0.00     0.128 C 
ATOM     22  O1  LG1 d5015      21.245  25.804  68.918  0.00  0.00    -0.298 OA
ATOM     23  C8  LG1 d5015      22.260  26.019  66.813  0.00  0.00     0.091 C 
ENDBRANCH   4  21
TORSDOF 1
ENDMDL
