REMARK INTER + INTRA:          -6.840
REMARK INTER:                  -6.638
REMARK INTRA:                  -0.203
REMARK UNBOUND:                -0.203
REMARK  1 active torsions:
REMARK  status: ('A' for Active; 'I' for Inactive)
REMARK    1  A    between atoms: C7_7  and  C4_4 
ROOT
ATOM      1  C1  LG1 d5015      23.458  24.621  69.819  0.00  0.00    -0.004 C 
ATOM      2  C2  LG1 d5015      22.831  25.928  69.322  0.00  0.00    -0.001 C 
ATOM      3  C3  LG1 d5015      23.092  26.192  67.792  0.00  0.00    -0.030 C 
ATOM      4  C4  LG1 d5015      22.264  27.510  67.637  0.00  0.00     0.063 C 
ATOM      5  C5  LG1 d5015      20.980  27.289  68.513  0.00  0.00     0.013 C 
ATOM      6  C6  LG1 d5015      21.300  26.093  69.482  0.00  0.00     0.006 C 
ATOM      7  C9  LG1 d5015      22.495  25.080  66.858  0.00  0.00     0.016 C 
ATOM      8  C10 LG1 d5015      24.623  26.336  67.642  0.00  0.00     0.011 C 
ATOM      9  C11 LG1 d5015      25.358  25.061  68.141  0.00  0.00     0.007 C 
ATOM     10  C12 LG1 d5015      25.006  24.718  69.612  0.00  0.00     0.002 C 
ATOM     11  C13 LG1 d5015      25.771  23.435  70.105  0.00  0.00    -0.016 C 
ATOM     12  C14 LG1 d5015      25.348  23.139  71.601  0.00  0.00    -0.068 C 
ATOM     13  C15 LG1 d5015      26.207  22.866  72.566  0.00  0.00     0.053 C 
ATOM     14  C16 LG1 d5015      27.626  22.690  72.297  0.00  0.00     0.149 C 
ATOM     15  C17 LG1 d5015      28.142  22.723  70.861  0.00  0.00     0.084 C 
ATOM     16  C18 LG1 d5015      27.295  23.720  70.031  0.00  0.00     0.022 C 
ATOM     17  O2  LG1 d5015      28.417  22.439  73.223  0.00  0.00    -0.293 OA
ATOM     18  C19 LG1 d5015      23.864  23.209  71.944  0.00  0.00     0.035 C 
ATOM     19  C20 LG1 d5015      23.180  24.448  71.334  0.00  0.00     0.010 C 
ATOM     20  C21 LG1 d5015      25.393  22.148  69.275  0.00  0.00     0.020 C 
ENDROOT
BRANCH   4  21
ATOM     21  C7  LG1 d5015      21.996  27.940  66.185  0.00  0.00     0.128 C 
ATOM     22  O1  LG1 d5015      22.911  28.307  65.480  0.00  0.00    -0.298 OA
ATOM     23  C8  LG1 d5015      20.606  27.892  65.650  0.00  0.00     0.091 C 
ENDBRANCH   4  21
TORSDOF 1
ENDMDL
