REMARK INTER + INTRA:          -6.942
REMARK INTER:                  -6.760
REMARK INTRA:                  -0.181
REMARK UNBOUND:                -0.203
REMARK  1 active torsions:
REMARK  status: ('A' for Active; 'I' for Inactive)
REMARK    1  A    between atoms: C7_7  and  C4_4 
ROOT
ATOM      1  C1  LG1 d5015      26.397  24.580  70.484  0.00  0.00    -0.004 C 
ATOM      2  C2  LG1 d5015      27.316  23.987  71.558  0.00  0.00    -0.001 C 
ATOM      3  C3  LG1 d5015      26.787  24.229  73.021  0.00  0.00    -0.030 C 
ATOM      4  C4  LG1 d5015      27.891  23.441  73.802  0.00  0.00     0.063 C 
ATOM      5  C5  LG1 d5015      28.174  22.167  72.930  0.00  0.00     0.013 C 
ATOM      6  C6  LG1 d5015      27.595  22.465  71.500  0.00  0.00     0.006 C 
ATOM      7  C9  LG1 d5015      25.384  23.580  73.291  0.00  0.00     0.016 C 
ATOM      8  C10 LG1 d5015      26.782  25.761  73.221  0.00  0.00     0.011 C 
ATOM      9  C11 LG1 d5015      25.888  26.463  72.161  0.00  0.00     0.007 C 
ATOM     10  C12 LG1 d5015      26.323  26.126  70.711  0.00  0.00     0.002 C 
ATOM     11  C13 LG1 d5015      25.418  26.857  69.652  0.00  0.00    -0.016 C 
ATOM     12  C14 LG1 d5015      25.909  26.452  68.203  0.00  0.00    -0.068 C 
ATOM     13  C15 LG1 d5015      26.110  27.319  67.228  0.00  0.00     0.053 C 
ATOM     14  C16 LG1 d5015      25.773  28.726  67.376  0.00  0.00     0.149 C 
ATOM     15  C17 LG1 d5015      25.080  29.217  68.644  0.00  0.00     0.084 C 
ATOM     16  C18 LG1 d5015      25.574  28.388  69.856  0.00  0.00     0.022 C 
ATOM     17  O2  LG1 d5015      25.979  29.525  66.445  0.00  0.00    -0.293 OA
ATOM     18  C19 LG1 d5015      26.192  24.977  67.940  0.00  0.00     0.035 C 
ATOM     19  C20 LG1 d5015      26.999  24.323  69.079  0.00  0.00     0.010 C 
ATOM     20  C21 LG1 d5015      23.905  26.423  69.746  0.00  0.00     0.020 C 
ENDROOT
BRANCH   4  21
ATOM     21  C7  LG1 d5015      27.564  23.162  75.278  0.00  0.00     0.128 C 
ATOM     22  O1  LG1 d5015      27.362  24.081  76.042  0.00  0.00    -0.298 OA
ATOM     23  C8  LG1 d5015      27.489  21.754  75.759  0.00  0.00     0.091 C 
ENDBRANCH   4  21
TORSDOF 1
ENDMDL
