REMARK INTER + INTRA:          -6.941
REMARK INTER:                  -6.759
REMARK INTRA:                  -0.182
REMARK UNBOUND:                -0.200
REMARK  1 active torsions:
REMARK  status: ('A' for Active; 'I' for Inactive)
REMARK    1  A    between atoms: C7_7  and  C4_4 
ROOT
ATOM      1  C1  LG1 d5015      26.394  24.566  70.493  0.00  0.00    -0.004 C 
ATOM      2  C2  LG1 d5015      27.304  23.966  71.571  0.00  0.00    -0.001 C 
ATOM      3  C3  LG1 d5015      26.774  24.219  73.032  0.00  0.00    -0.030 C 
ATOM      4  C4  LG1 d5015      27.868  23.421  73.818  0.00  0.00     0.063 C 
ATOM      5  C5  LG1 d5015      28.139  22.141  72.951  0.00  0.00     0.013 C 
ATOM      6  C6  LG1 d5015      27.566  22.441  71.519  0.00  0.00     0.006 C 
ATOM      7  C9  LG1 d5015      25.364  23.586  73.301  0.00  0.00     0.016 C 
ATOM      8  C10 LG1 d5015      26.786  25.751  73.227  0.00  0.00     0.011 C 
ATOM      9  C11 LG1 d5015      25.903  26.460  72.163  0.00  0.00     0.007 C 
ATOM     10  C12 LG1 d5015      26.337  26.113  70.716  0.00  0.00     0.002 C 
ATOM     11  C13 LG1 d5015      25.442  26.851  69.652  0.00  0.00    -0.016 C 
ATOM     12  C14 LG1 d5015      25.931  26.436  68.206  0.00  0.00    -0.068 C 
ATOM     13  C15 LG1 d5015      26.145  27.297  67.228  0.00  0.00     0.053 C 
ATOM     14  C16 LG1 d5015      25.822  28.709  67.371  0.00  0.00     0.149 C 
ATOM     15  C17 LG1 d5015      25.133  29.212  68.636  0.00  0.00     0.084 C 
ATOM     16  C18 LG1 d5015      25.614  28.381  69.851  0.00  0.00     0.022 C 
ATOM     17  O2  LG1 d5015      26.039  29.502  66.438  0.00  0.00    -0.293 OA
ATOM     18  C19 LG1 d5015      26.199  24.957  67.947  0.00  0.00     0.035 C 
ATOM     19  C20 LG1 d5015      26.995  24.298  69.090  0.00  0.00     0.010 C 
ATOM     20  C21 LG1 d5015      23.924  26.434  69.744  0.00  0.00     0.020 C 
ENDROOT
BRANCH   4  21
ATOM     21  C7  LG1 d5015      27.535  23.150  75.294  0.00  0.00     0.128 C 
ATOM     22  O1  LG1 d5015      27.339  24.074  76.055  0.00  0.00    -0.298 OA
ATOM     23  C8  LG1 d5015      27.447  21.745  75.781  0.00  0.00     0.091 C 
ENDBRANCH   4  21
TORSDOF 1
ENDMDL
