MODEL 1
REMARK VINA RESULT:    -6.228      0.000      0.000
REMARK INTER + INTRA:          -6.616
REMARK INTER:                  -6.407
REMARK INTRA:                  -0.208
REMARK UNBOUND:                -0.023
REMARK  1 active torsions:
REMARK  status: ('A' for Active; 'I' for Inactive)
REMARK    1  A    between atoms: C1_1  and  N1_10 
ROOT
ATOM      1  C1  LG1 d5015      25.962  23.470  70.750  0.00  0.00     0.056 A 
ATOM      2  C2  LG1 d5015      27.221  22.891  70.596  0.00  0.00    -0.033 A 
ATOM      3  C3  LG1 d5015      27.923  22.440  71.714  0.00  0.00     0.028 A 
ATOM      4  C4  LG1 d5015      27.366  22.569  72.986  0.00  0.00     0.012 A 
ATOM      5  C5  LG1 d5015      26.106  23.150  73.140  0.00  0.00     0.028 A 
ATOM      6  C6  LG1 d5015      25.405  23.600  72.023  0.00  0.00    -0.033 A 
ATOM      7  C7  LG1 d5015      24.058  24.218  72.220  0.00  0.00     0.050 C 
ATOM      8 BR1  LG1 d5015      28.318  21.959  74.501  0.00  0.00    -0.051 Br
ATOM      9  C8  LG1 d5015      27.843  22.738  69.245  0.00  0.00     0.050 C 
ENDROOT
BRANCH   1  10
ATOM     10  N1  LG1 d5015      25.238  23.933  69.600  0.00  0.00    -0.265 N 
ATOM     11  C11 LG1 d5015      24.377  23.137  68.845  0.00  0.00     0.148 C 
ATOM     12  S2  LG1 d5015      23.772  21.605  69.149  0.00  0.00    -0.052 SA
ATOM     13  S1  LG1 d5015      23.843  24.035  67.428  0.00  0.00    -0.090 SA
ATOM     14  C10 LG1 d5015      24.532  25.588  68.000  0.00  0.00     0.185 C 
ATOM     15  C9  LG1 d5015      25.403  25.260  69.177  0.00  0.00     0.239 C 
ATOM     16  O1  LG1 d5015      26.160  26.105  69.649  0.00  0.00    -0.272 OA
ENDBRANCH   1  10
TORSDOF 1
ENDMDL
MODEL 2
REMARK VINA RESULT:    -6.215      0.049      2.152
REMARK INTER + INTRA:          -6.601
REMARK INTER:                  -6.395
REMARK INTRA:                  -0.206
REMARK UNBOUND:                -0.023
REMARK  1 active torsions:
REMARK  status: ('A' for Active; 'I' for Inactive)
REMARK    1  A    between atoms: C1_1  and  N1_10 
ROOT
ATOM      1  C1  LG1 d5015      25.950  23.502  70.744  0.00  0.00     0.056 A 
ATOM      2  C2  LG1 d5015      25.398  23.610  72.020  0.00  0.00    -0.033 A 
ATOM      3  C3  LG1 d5015      26.115  23.160  73.130  0.00  0.00     0.028 A 
ATOM      4  C4  LG1 d5015      27.383  22.603  72.963  0.00  0.00     0.012 A 
ATOM      5  C5  LG1 d5015      27.934  22.495  71.685  0.00  0.00     0.028 A 
ATOM      6  C6  LG1 d5015      27.218  22.944  70.577  0.00  0.00    -0.033 A 
ATOM      7  C7  LG1 d5015      27.835  22.815  69.222  0.00  0.00     0.050 C 
ATOM      8 BR1  LG1 d5015      28.352  21.992  74.466  0.00  0.00    -0.051 Br
ATOM      9  C8  LG1 d5015      24.043  24.203  72.231  0.00  0.00     0.050 C 
ENDROOT
BRANCH   1  10
ATOM     10  N1  LG1 d5015      25.214  23.966  69.602  0.00  0.00    -0.265 N 
ATOM     11  C11 LG1 d5015      24.349  23.169  68.852  0.00  0.00     0.148 C 
ATOM     12  S2  LG1 d5015      23.753  21.633  69.157  0.00  0.00    -0.052 SA
ATOM     13  S1  LG1 d5015      23.798  24.069  67.444  0.00  0.00    -0.090 SA
ATOM     14  C10 LG1 d5015      24.485  25.623  68.015  0.00  0.00     0.185 C 
ATOM     15  C9  LG1 d5015      25.369  25.295  69.183  0.00  0.00     0.239 C 
ATOM     16  O1  LG1 d5015      26.126  26.142  69.651  0.00  0.00    -0.272 OA
ENDBRANCH   1  10
TORSDOF 1
ENDMDL
MODEL 3
REMARK VINA RESULT:    -6.209      1.641      3.008
REMARK INTER + INTRA:          -6.595
REMARK INTER:                  -6.391
REMARK INTRA:                  -0.203
REMARK UNBOUND:                -0.023
REMARK  1 active torsions:
REMARK  status: ('A' for Active; 'I' for Inactive)
REMARK    1  A    between atoms: C1_1  and  N1_10 
ROOT
ATOM      1  C1  LG1 d5015      25.868  23.439  70.612  0.00  0.00     0.056 A 
ATOM      2  C2  LG1 d5015      25.283  23.482  71.877  0.00  0.00    -0.033 A 
ATOM      3  C3  LG1 d5015      26.001  23.050  72.992  0.00  0.00     0.028 A 
ATOM      4  C4  LG1 d5015      27.304  22.576  72.843  0.00  0.00     0.012 A 
ATOM      5  C5  LG1 d5015      27.889  22.532  71.576  0.00  0.00     0.028 A 
ATOM      6  C6  LG1 d5015      27.171  22.963  70.462  0.00  0.00    -0.033 A 
ATOM      7  C7  LG1 d5015      27.824  22.905  69.119  0.00  0.00     0.050 C 
ATOM      8 BR1  LG1 d5015      28.276  21.990  74.354  0.00  0.00    -0.051 Br
ATOM      9  C8  LG1 d5015      23.889  23.986  72.069  0.00  0.00     0.050 C 
ENDROOT
BRANCH   1  10
ATOM     10  N1  LG1 d5015      25.129  23.884  69.464  0.00  0.00    -0.265 N 
ATOM     11  C11 LG1 d5015      25.078  25.210  69.033  0.00  0.00     0.148 C 
ATOM     12  S2  LG1 d5015      25.971  26.541  69.516  0.00  0.00    -0.052 SA
ATOM     13  S1  LG1 d5015      23.924  25.349  67.710  0.00  0.00    -0.090 SA
ATOM     14  C10 LG1 d5015      23.731  23.576  67.528  0.00  0.00     0.185 C 
ATOM     15  C9  LG1 d5015      24.392  22.950  68.722  0.00  0.00     0.239 C 
ATOM     16  O1  LG1 d5015      24.242  21.755  68.965  0.00  0.00    -0.272 OA
ENDBRANCH   1  10
TORSDOF 1
ENDMDL
MODEL 4
REMARK VINA RESULT:    -6.207      1.642      2.106
REMARK INTER + INTRA:          -6.593
REMARK INTER:                  -6.388
REMARK INTRA:                  -0.205
REMARK UNBOUND:                -0.023
REMARK  1 active torsions:
REMARK  status: ('A' for Active; 'I' for Inactive)
REMARK    1  A    between atoms: C1_1  and  N1_10 
ROOT
ATOM      1  C1  LG1 d5015      25.868  23.435  70.612  0.00  0.00     0.056 A 
ATOM      2  C2  LG1 d5015      27.174  22.968  70.463  0.00  0.00    -0.033 A 
ATOM      3  C3  LG1 d5015      27.890  22.533  71.578  0.00  0.00     0.028 A 
ATOM      4  C4  LG1 d5015      27.302  22.566  72.842  0.00  0.00     0.012 A 
ATOM      5  C5  LG1 d5015      25.995  23.035  72.991  0.00  0.00     0.028 A 
ATOM      6  C6  LG1 d5015      25.280  23.469  71.876  0.00  0.00    -0.033 A 
ATOM      7  C7  LG1 d5015      23.883  23.965  72.068  0.00  0.00     0.050 C 
ATOM      8 BR1  LG1 d5015      28.274  21.979  74.353  0.00  0.00    -0.051 Br
ATOM      9  C8  LG1 d5015      27.831  22.919  69.121  0.00  0.00     0.050 C 
ENDROOT
BRANCH   1  10
ATOM     10  N1  LG1 d5015      25.130  23.881  69.464  0.00  0.00    -0.265 N 
ATOM     11  C11 LG1 d5015      25.077  25.207  69.035  0.00  0.00     0.148 C 
ATOM     12  S2  LG1 d5015      25.970  26.539  69.520  0.00  0.00    -0.052 SA
ATOM     13  S1  LG1 d5015      23.924  25.348  67.713  0.00  0.00    -0.090 SA
ATOM     14  C10 LG1 d5015      23.733  23.575  67.528  0.00  0.00     0.185 C 
ATOM     15  C9  LG1 d5015      24.393  22.948  68.721  0.00  0.00     0.239 C 
ATOM     16  O1  LG1 d5015      24.244  21.752  68.962  0.00  0.00    -0.272 OA
ENDBRANCH   1  10
TORSDOF 1
ENDMDL
MODEL 5
REMARK VINA RESULT:    -5.160      4.041      5.339
REMARK INTER + INTRA:          -5.485
REMARK INTER:                  -5.462
REMARK INTRA:                  -0.023
REMARK UNBOUND:                -0.023
REMARK  1 active torsions:
REMARK  status: ('A' for Active; 'I' for Inactive)
REMARK    1  A    between atoms: C1_1  and  N1_10 
ROOT
ATOM      1  C1  LG1 d5015      26.802  24.156  73.222  0.00  0.00     0.056 A 
ATOM      2  C2  LG1 d5015      27.315  22.879  72.998  0.00  0.00    -0.033 A 
ATOM      3  C3  LG1 d5015      27.549  22.440  71.695  0.00  0.00     0.028 A 
ATOM      4  C4  LG1 d5015      27.271  23.278  70.616  0.00  0.00     0.012 A 
ATOM      5  C5  LG1 d5015      26.756  24.557  70.840  0.00  0.00     0.028 A 
ATOM      6  C6  LG1 d5015      26.522  24.994  72.143  0.00  0.00    -0.033 A 
ATOM      7  C7  LG1 d5015      25.971  26.368  72.351  0.00  0.00     0.050 C 
ATOM      8 BR1  LG1 d5015      27.587  22.682  68.850  0.00  0.00    -0.051 Br
ATOM      9  C8  LG1 d5015      27.625  21.959  74.134  0.00  0.00     0.050 C 
ENDROOT
BRANCH   1  10
ATOM     10  N1  LG1 d5015      26.561  24.609  74.563  0.00  0.00    -0.265 N 
ATOM     11  C11 LG1 d5015      25.300  24.660  75.157  0.00  0.00     0.148 C 
ATOM     12  S2  LG1 d5015      23.833  24.039  74.641  0.00  0.00    -0.052 SA
ATOM     13  S1  LG1 d5015      25.427  25.441  76.730  0.00  0.00    -0.090 SA
ATOM     14  C10 LG1 d5015      27.219  25.428  76.729  0.00  0.00     0.185 C 
ATOM     15  C9  LG1 d5015      27.643  25.047  75.340  0.00  0.00     0.239 C 
ATOM     16  O1  LG1 d5015      28.817  25.152  74.994  0.00  0.00    -0.272 OA
ENDBRANCH   1  10
TORSDOF 1
ENDMDL
