REMARK INTER + INTRA:          -8.075
REMARK INTER:                  -7.617
REMARK INTRA:                  -0.459
REMARK UNBOUND:                -0.370
REMARK  2 active torsions:
REMARK  status: ('A' for Active; 'I' for Inactive)
REMARK    1  A    between atoms: C1_1  and  N1_15 
REMARK    2  A    between atoms: C7_9  and  C4_4 
ROOT
ATOM      1  C1  LG1 d5015      25.548  23.528  70.650  0.00  0.00     0.141 A 
ATOM      2  C2  LG1 d5015      24.947  23.677  71.900  0.00  0.00     0.187 A 
ATOM      3  C3  LG1 d5015      25.675  23.413  73.060  0.00  0.00     0.175 A 
ATOM      4  C4  LG1 d5015      27.004  22.999  72.970  0.00  0.00     0.131 A 
ATOM      5  C5  LG1 d5015      27.605  22.849  71.721  0.00  0.00     0.175 A 
ATOM      6  C6  LG1 d5015      26.877  23.114  70.561  0.00  0.00     0.187 A 
ATOM      7  F1  LG1 d5015      27.468  22.966  69.367  0.00  0.00    -0.200 F 
ATOM      8  F2  LG1 d5015      28.882  22.451  71.625  0.00  0.00    -0.202 F 
ATOM      9  F6  LG1 d5015      25.088  23.560  74.257  0.00  0.00    -0.202 F 
ATOM     10  F7  LG1 d5015      23.670  24.075  72.001  0.00  0.00    -0.200 F 
ENDROOT
BRANCH   1  11
ATOM     11  N1  LG1 d5015      24.827  23.790  69.500  0.00  0.00    -0.232 N 
ATOM     12  N2  LG1 d5015      24.612  25.061  69.121  0.00  0.00    -0.172 NA
ATOM     13  C10 LG1 d5015      23.900  24.927  68.000  0.00  0.00     0.053 A 
ATOM     14  C9  LG1 d5015      23.660  23.580  67.665  0.00  0.00     0.055 A 
ATOM     15  C11 LG1 d5015      23.460  26.125  67.264  0.00  0.00     0.072 C 
ATOM     16  C8  LG1 d5015      24.278  22.865  68.662  0.00  0.00     0.035 A 
ATOM     17  C12 LG1 d5015      24.384  21.408  68.871  0.00  0.00     0.070 C 
ENDBRANCH   1  11
BRANCH   4  18
ATOM     18  C7  LG1 d5015      27.782  22.716  74.212  0.00  0.00     0.423 C 
ATOM     19  F4  LG1 d5015      28.248  21.434  74.284  0.00  0.00    -0.166 F 
ATOM     20  F3  LG1 d5015      27.066  22.900  75.360  0.00  0.00    -0.166 F 
ATOM     21  F5  LG1 d5015      28.882  23.514  74.335  0.00  0.00    -0.166 F 
ENDBRANCH   4  18
TORSDOF 2
ENDMDL
