REMARK INTER + INTRA:          -5.621
REMARK INTER:                  -5.543
REMARK INTRA:                  -0.077
REMARK UNBOUND:                -0.158
REMARK  1 active torsions:
REMARK  status: ('A' for Active; 'I' for Inactive)
REMARK    1  A    between atoms: C10_13  and  C11_14 
ROOT
ATOM      1  C1  LG1 d5015      24.944  24.129  70.601  0.00  0.00     0.018 C 
ATOM      2  C2  LG1 d5015      23.911  23.997  69.543  0.00  0.00     0.193 C 
ATOM      3  C3  LG1 d5015      23.733  25.203  68.708  0.00  0.00     0.049 A 
ATOM      4  C4  LG1 d5015      22.716  25.249  67.751  0.00  0.00     0.037 A 
ATOM      5  C5  LG1 d5015      22.593  26.367  66.926  0.00  0.00     0.012 A 
ATOM      6  C6  LG1 d5015      23.486  27.432  67.047  0.00  0.00     0.022 A 
ATOM      7  C7  LG1 d5015      24.504  27.384  68.001  0.00  0.00     0.039 A 
ATOM      8  C8  LG1 d5015      24.619  26.279  68.843  0.00  0.00     0.083 A 
ATOM      9  O1  LG1 d5015      25.650  26.290  69.744  0.00  0.00    -0.346 OA
ATOM     10  C9  LG1 d5015      25.379  25.522  70.922  0.00  0.00     0.218 C 
ATOM     11 BR1  LG1 d5015      21.200  26.448  65.649  0.00  0.00    -0.051 Br
ATOM     12  O2  LG1 d5015      23.251  22.984  69.363  0.00  0.00    -0.287 OA
ATOM     13  C10 LG1 d5015      25.415  23.029  71.200  0.00  0.00     0.025 C 
ENDROOT
BRANCH  13  14
ATOM     14  C11 LG1 d5015      26.410  23.028  72.230  0.00  0.00    -0.029 A 
ATOM     15  C14 LG1 d5015      26.138  23.379  73.533  0.00  0.00     0.061 A 
ATOM     16  S1  LG1 d5015      27.526  23.277  74.530  0.00  0.00    -0.113 SA
ATOM     17  C13 LG1 d5015      28.497  22.763  73.218  0.00  0.00     0.050 A 
ATOM     18  C12 LG1 d5015      27.778  22.671  72.048  0.00  0.00     0.019 A 
ENDBRANCH  13  14
TORSDOF 1
ENDMDL
