REMARK INTER + INTRA:          -5.385
REMARK INTER:                  -5.218
REMARK INTRA:                  -0.167
REMARK UNBOUND:                 0.011
REMARK  1 active torsions:
REMARK  status: ('A' for Active; 'I' for Inactive)
REMARK    1  A    between atoms: C10_13  and  C11_14 
ROOT
ATOM      1  C1  LG1 d5015      24.339  24.408  69.966  0.00  0.00     0.018 C 
ATOM      2  C2  LG1 d5015      24.974  23.259  70.657  0.00  0.00     0.193 C 
ATOM      3  C3  LG1 d5015      25.895  23.635  71.751  0.00  0.00     0.049 A 
ATOM      4  C4  LG1 d5015      26.641  22.653  72.406  0.00  0.00     0.037 A 
ATOM      5  C5  LG1 d5015      27.462  23.009  73.477  0.00  0.00     0.012 A 
ATOM      6  C6  LG1 d5015      27.530  24.337  73.900  0.00  0.00     0.022 A 
ATOM      7  C7  LG1 d5015      26.781  25.317  73.247  0.00  0.00     0.039 A 
ATOM      8  C8  LG1 d5015      25.976  24.971  72.162  0.00  0.00     0.083 A 
ATOM      9  O1  LG1 d5015      25.254  25.978  71.578  0.00  0.00    -0.346 OA
ATOM     10  C9  LG1 d5015      24.973  25.742  70.194  0.00  0.00     0.218 C 
ATOM     11 BR1  LG1 d5015      28.499  21.690  74.350  0.00  0.00    -0.051 Br
ATOM     12  O2  LG1 d5015      24.768  22.091  70.361  0.00  0.00    -0.287 OA
ATOM     13  C10 LG1 d5015      23.267  24.199  69.192  0.00  0.00     0.025 C 
ENDROOT
BRANCH  13  14
ATOM     14  C11 LG1 d5015      22.569  25.224  68.476  0.00  0.00    -0.029 A 
ATOM     15  C14 LG1 d5015      21.527  25.940  69.022  0.00  0.00     0.061 A 
ATOM     16  S1  LG1 d5015      20.897  27.095  67.927  0.00  0.00    -0.113 SA
ATOM     17  C13 LG1 d5015      22.019  26.640  66.717  0.00  0.00     0.050 A 
ATOM     18  C12 LG1 d5015      22.854  25.630  67.140  0.00  0.00     0.019 A 
ENDBRANCH  13  14
TORSDOF 1
ENDMDL
