REMARK INTER + INTRA:          -6.583
REMARK INTER:                  -6.386
REMARK INTRA:                  -0.197
REMARK UNBOUND:                -0.207
REMARK  1 active torsions:
REMARK  status: ('A' for Active; 'I' for Inactive)
REMARK    1  A    between atoms: C1_1  and  N1_10 
ROOT
ATOM      1  C1  LG1 d5015      25.881  23.451  70.609  0.00  0.00     0.056 A 
ATOM      2  C2  LG1 d5015      25.300  23.506  71.875  0.00  0.00    -0.033 A 
ATOM      3  C3  LG1 d5015      26.017  23.074  72.991  0.00  0.00     0.028 A 
ATOM      4  C4  LG1 d5015      27.315  22.587  72.841  0.00  0.00     0.012 A 
ATOM      5  C5  LG1 d5015      27.896  22.530  71.573  0.00  0.00     0.028 A 
ATOM      6  C6  LG1 d5015      27.179  22.962  70.459  0.00  0.00    -0.033 A 
ATOM      7  C7  LG1 d5015      27.828  22.889  69.114  0.00  0.00     0.050 C 
ATOM      8 BR1  LG1 d5015      28.285  22.000  74.353  0.00  0.00    -0.051 Br
ATOM      9  C8  LG1 d5015      23.912  24.025  72.068  0.00  0.00     0.050 C 
ENDROOT
BRANCH   1  10
ATOM     10  N1  LG1 d5015      25.144  23.896  69.460  0.00  0.00    -0.265 N 
ATOM     11  C11 LG1 d5015      25.091  25.222  69.031  0.00  0.00     0.148 C 
ATOM     12  S2  LG1 d5015      25.983  26.555  69.517  0.00  0.00    -0.052 SA
ATOM     13  S1  LG1 d5015      23.940  25.363  67.707  0.00  0.00    -0.090 SA
ATOM     14  C10 LG1 d5015      23.749  23.589  67.522  0.00  0.00     0.185 C 
ATOM     15  C9  LG1 d5015      24.409  22.963  68.717  0.00  0.00     0.239 C 
ATOM     16  O1  LG1 d5015      24.259  21.767  68.957  0.00  0.00    -0.272 OA
ENDBRANCH   1  10
TORSDOF 1
ENDMDL
