MODEL 1
REMARK VINA RESULT:    -5.801      0.000      0.000
REMARK INTER + INTRA:          -6.249
REMARK INTER:                  -6.126
REMARK INTRA:                  -0.123
REMARK UNBOUND:                -0.109
REMARK  1 active torsions:
REMARK  status: ('A' for Active; 'I' for Inactive)
REMARK    1  A    between atoms: C10_13  and  C11_14 
ROOT
ATOM      1  C1  LG1 d5015      23.787  25.427  68.473  0.00  0.00     0.018 C 
ATOM      2  C2  LG1 d5015      24.401  25.267  69.815  0.00  0.00     0.193 C 
ATOM      3  C3  LG1 d5015      25.552  24.340  69.855  0.00  0.00     0.049 A 
ATOM      4  C4  LG1 d5015      26.147  24.015  71.076  0.00  0.00     0.037 A 
ATOM      5  C5  LG1 d5015      27.270  23.188  71.098  0.00  0.00     0.012 A 
ATOM      6  C6  LG1 d5015      27.804  22.694  69.908  0.00  0.00     0.022 A 
ATOM      7  C7  LG1 d5015      27.211  23.022  68.688  0.00  0.00     0.039 A 
ATOM      8  C8  LG1 d5015      26.075  23.831  68.660  0.00  0.00     0.083 A 
ATOM      9  O1  LG1 d5015      25.554  24.127  67.429  0.00  0.00    -0.346 OA
ATOM     10  C9  LG1 d5015      24.147  24.390  67.460  0.00  0.00     0.218 C 
ATOM     11 BR1  LG1 d5015      28.063  22.719  72.751  0.00  0.00    -0.051 Br
ATOM     12  O2  LG1 d5015      24.001  25.843  70.817  0.00  0.00    -0.287 OA
ATOM     13  C10 LG1 d5015      22.964  26.458  68.246  0.00  0.00     0.025 C 
ENDROOT
BRANCH  13  14
ATOM     14  C11 LG1 d5015      22.314  26.719  66.997  0.00  0.00    -0.029 A 
ATOM     15  C14 LG1 d5015      22.749  27.681  66.115  0.00  0.00     0.061 A 
ATOM     16  S1  LG1 d5015      21.772  27.755  64.711  0.00  0.00    -0.113 SA
ATOM     17  C13 LG1 d5015      20.761  26.498  65.281  0.00  0.00     0.050 A 
ATOM     18  C12 LG1 d5015      21.162  26.032  66.514  0.00  0.00     0.019 A 
ENDBRANCH  13  14
TORSDOF 1
ENDMDL
MODEL 2
REMARK VINA RESULT:    -5.490      2.411      3.932
REMARK INTER + INTRA:          -5.921
REMARK INTER:                  -5.755
REMARK INTRA:                  -0.165
REMARK UNBOUND:                -0.109
REMARK  1 active torsions:
REMARK  status: ('A' for Active; 'I' for Inactive)
REMARK    1  A    between atoms: C10_13  and  C11_14 
ROOT
ATOM      1  C1  LG1 d5015      26.489  25.311  69.808  0.00  0.00     0.018 C 
ATOM      2  C2  LG1 d5015      27.099  24.069  70.345  0.00  0.00     0.193 C 
ATOM      3  C3  LG1 d5015      27.012  23.930  71.814  0.00  0.00     0.049 A 
ATOM      4  C4  LG1 d5015      27.645  22.864  72.456  0.00  0.00     0.037 A 
ATOM      5  C5  LG1 d5015      27.507  22.706  73.835  0.00  0.00     0.012 A 
ATOM      6  C6  LG1 d5015      26.732  23.603  74.572  0.00  0.00     0.022 A 
ATOM      7  C7  LG1 d5015      26.096  24.666  73.929  0.00  0.00     0.039 A 
ATOM      8  C8  LG1 d5015      26.248  24.841  72.554  0.00  0.00     0.083 A 
ATOM      9  O1  LG1 d5015      25.583  25.895  71.985  0.00  0.00    -0.346 OA
ATOM     10  C9  LG1 d5015      26.219  26.392  70.803  0.00  0.00     0.218 C 
ATOM     11 BR1  LG1 d5015      28.388  21.282  74.715  0.00  0.00    -0.051 Br
ATOM     12  O2  LG1 d5015      27.636  23.221  69.648  0.00  0.00    -0.287 OA
ATOM     13  C10 LG1 d5015      26.223  25.399  68.499  0.00  0.00     0.025 C 
ENDROOT
BRANCH  13  14
ATOM     14  C11 LG1 d5015      25.635  26.541  67.865  0.00  0.00    -0.029 A 
ATOM     15  C14 LG1 d5015      24.278  26.681  67.687  0.00  0.00     0.061 A 
ATOM     16  S1  LG1 d5015      23.881  28.149  66.902  0.00  0.00    -0.113 SA
ATOM     17  C13 LG1 d5015      25.528  28.602  66.796  0.00  0.00     0.050 A 
ATOM     18  C12 LG1 d5015      26.360  27.654  67.349  0.00  0.00     0.019 A 
ENDBRANCH  13  14
TORSDOF 1
ENDMDL
MODEL 3
REMARK VINA RESULT:    -5.003      2.149      2.681
REMARK INTER + INTRA:          -5.405
REMARK INTER:                  -5.295
REMARK INTRA:                  -0.109
REMARK UNBOUND:                -0.109
REMARK  1 active torsions:
REMARK  status: ('A' for Active; 'I' for Inactive)
REMARK    1  A    between atoms: C10_13  and  C11_14 
ROOT
ATOM      1  C1  LG1 d5015      25.674  26.904  69.028  0.00  0.00     0.018 C 
ATOM      2  C2  LG1 d5015      26.042  26.415  70.380  0.00  0.00     0.193 C 
ATOM      3  C3  LG1 d5015      26.626  25.057  70.403  0.00  0.00     0.049 A 
ATOM      4  C4  LG1 d5015      26.911  24.437  71.621  0.00  0.00     0.037 A 
ATOM      5  C5  LG1 d5015      27.518  23.181  71.632  0.00  0.00     0.012 A 
ATOM      6  C6  LG1 d5015      27.848  22.549  70.433  0.00  0.00     0.022 A 
ATOM      7  C7  LG1 d5015      27.566  23.170  69.215  0.00  0.00     0.039 A 
ATOM      8  C8  LG1 d5015      26.940  24.417  69.198  0.00  0.00     0.083 A 
ATOM      9  O1  LG1 d5015      26.708  24.977  67.969  0.00  0.00    -0.346 OA
ATOM     10  C9  LG1 d5015      25.585  25.865  67.958  0.00  0.00     0.218 C 
ATOM     11 BR1  LG1 d5015      27.878  22.322  73.278  0.00  0.00    -0.051 Br
ATOM     12  O2  LG1 d5015      25.882  27.065  71.403  0.00  0.00    -0.287 OA
ATOM     13  C10 LG1 d5015      25.441  28.209  68.842  0.00  0.00     0.025 C 
ENDROOT
BRANCH  13  14
ATOM     14  C11 LG1 d5015      25.080  28.799  67.588  0.00  0.00    -0.029 A 
ATOM     15  C14 LG1 d5015      23.799  28.765  67.087  0.00  0.00     0.061 A 
ATOM     16  S1  LG1 d5015      23.679  29.555  65.573  0.00  0.00    -0.113 SA
ATOM     17  C13 LG1 d5015      25.346  29.944  65.583  0.00  0.00     0.050 A 
ATOM     18  C12 LG1 d5015      25.977  29.482  66.717  0.00  0.00     0.019 A 
ENDBRANCH  13  14
TORSDOF 1
ENDMDL
MODEL 4
REMARK VINA RESULT:    -4.968      1.999      3.172
REMARK INTER + INTRA:          -5.368
REMARK INTER:                  -5.199
REMARK INTRA:                  -0.169
REMARK UNBOUND:                -0.109
REMARK  1 active torsions:
REMARK  status: ('A' for Active; 'I' for Inactive)
REMARK    1  A    between atoms: C10_13  and  C11_14 
ROOT
ATOM      1  C1  LG1 d5015      24.463  24.351  69.996  0.00  0.00     0.018 C 
ATOM      2  C2  LG1 d5015      25.106  23.204  70.683  0.00  0.00     0.193 C 
ATOM      3  C3  LG1 d5015      25.980  23.579  71.815  0.00  0.00     0.049 A 
ATOM      4  C4  LG1 d5015      26.731  22.603  72.473  0.00  0.00     0.037 A 
ATOM      5  C5  LG1 d5015      27.507  22.956  73.578  0.00  0.00     0.012 A 
ATOM      6  C6  LG1 d5015      27.526  24.276  74.032  0.00  0.00     0.022 A 
ATOM      7  C7  LG1 d5015      26.771  25.250  73.375  0.00  0.00     0.039 A 
ATOM      8  C8  LG1 d5015      26.012  24.907  72.257  0.00  0.00     0.083 A 
ATOM      9  O1  LG1 d5015      25.283  25.908  71.672  0.00  0.00    -0.346 OA
ATOM     10  C9  LG1 d5015      25.053  25.696  70.275  0.00  0.00     0.218 C 
ATOM     11 BR1  LG1 d5015      28.551  21.645  74.455  0.00  0.00    -0.051 Br
ATOM     12  O2  LG1 d5015      24.941  22.038  70.355  0.00  0.00    -0.287 OA
ATOM     13  C10 LG1 d5015      23.423  24.131  69.183  0.00  0.00     0.025 C 
ENDROOT
BRANCH  13  14
ATOM     14  C11 LG1 d5015      22.720  25.154  68.468  0.00  0.00    -0.029 A 
ATOM     15  C14 LG1 d5015      21.616  25.799  68.978  0.00  0.00     0.061 A 
ATOM     16  S1  LG1 d5015      20.999  26.970  67.893  0.00  0.00    -0.113 SA
ATOM     17  C13 LG1 d5015      22.209  26.617  66.735  0.00  0.00     0.050 A 
ATOM     18  C12 LG1 d5015      23.064  25.628  67.169  0.00  0.00     0.019 A 
ENDBRANCH  13  14
TORSDOF 1
ENDMDL
MODEL 5
REMARK VINA RESULT:    -4.916      4.010      6.984
REMARK INTER + INTRA:          -5.313
REMARK INTER:                  -5.201
REMARK INTRA:                  -0.113
REMARK UNBOUND:                -0.109
REMARK  1 active torsions:
REMARK  status: ('A' for Active; 'I' for Inactive)
REMARK    1  A    between atoms: C10_13  and  C11_14 
ROOT
ATOM      1  C1  LG1 d5015      25.218  24.336  69.993  0.00  0.00     0.018 C 
ATOM      2  C2  LG1 d5015      24.848  24.848  68.650  0.00  0.00     0.193 C 
ATOM      3  C3  LG1 d5015      23.435  25.264  68.521  0.00  0.00     0.049 A 
ATOM      4  C4  LG1 d5015      22.932  25.659  67.279  0.00  0.00     0.037 A 
ATOM      5  C5  LG1 d5015      21.615  26.107  67.178  0.00  0.00     0.012 A 
ATOM      6  C6  LG1 d5015      20.805  26.171  68.313  0.00  0.00     0.022 A 
ATOM      7  C7  LG1 d5015      21.309  25.780  69.554  0.00  0.00     0.039 A 
ATOM      8  C8  LG1 d5015      22.619  25.310  69.657  0.00  0.00     0.083 A 
ATOM      9  O1  LG1 d5015      23.055  24.959  70.907  0.00  0.00    -0.346 OA
ATOM     10  C9  LG1 d5015      24.081  23.961  70.887  0.00  0.00     0.218 C 
ATOM     11 BR1  LG1 d5015      20.917  26.614  65.495  0.00  0.00    -0.051 Br
ATOM     12  O2  LG1 d5015      25.631  24.927  67.715  0.00  0.00    -0.287 OA
ATOM     13  C10 LG1 d5015      26.511  24.233  70.324  0.00  0.00     0.025 C 
ENDROOT
BRANCH  13  14
ATOM     14  C11 LG1 d5015      26.990  23.755  71.586  0.00  0.00    -0.029 A 
ATOM     15  C14 LG1 d5015      27.007  24.532  72.722  0.00  0.00     0.061 A 
ATOM     16  S1  LG1 d5015      27.633  23.685  74.071  0.00  0.00    -0.113 SA
ATOM     17  C13 LG1 d5015      27.886  22.273  73.137  0.00  0.00     0.050 A 
ATOM     18  C12 LG1 d5015      27.499  22.446  71.826  0.00  0.00     0.019 A 
ENDBRANCH  13  14
TORSDOF 1
ENDMDL
