REMARK INTER + INTRA:          -5.373
REMARK INTER:                  -5.302
REMARK INTRA:                  -0.071
REMARK UNBOUND:                 0.011
REMARK  1 active torsions:
REMARK  status: ('A' for Active; 'I' for Inactive)
REMARK    1  A    between atoms: C10_13  and  C11_14 
ROOT
ATOM      1  C1  LG1 d5015      25.325  24.290  70.129  0.00  0.00     0.018 C 
ATOM      2  C2  LG1 d5015      24.966  24.765  68.769  0.00  0.00     0.193 C 
ATOM      3  C3  LG1 d5015      23.558  25.191  68.622  0.00  0.00     0.049 A 
ATOM      4  C4  LG1 d5015      23.064  25.553  67.367  0.00  0.00     0.037 A 
ATOM      5  C5  LG1 d5015      21.751  26.011  67.247  0.00  0.00     0.012 A 
ATOM      6  C6  LG1 d5015      20.938  26.118  68.375  0.00  0.00     0.022 A 
ATOM      7  C7  LG1 d5015      21.434  25.760  69.630  0.00  0.00     0.039 A 
ATOM      8  C8  LG1 d5015      22.738  25.280  69.753  0.00  0.00     0.083 A 
ATOM      9  O1  LG1 d5015      23.165  24.963  71.015  0.00  0.00    -0.346 OA
ATOM     10  C9  LG1 d5015      24.181  23.955  71.029  0.00  0.00     0.218 C 
ATOM     11 BR1  LG1 d5015      21.066  26.473  65.545  0.00  0.00    -0.051 Br
ATOM     12  O2  LG1 d5015      25.753  24.807  67.835  0.00  0.00    -0.287 OA
ATOM     13  C10 LG1 d5015      26.616  24.185  70.468  0.00  0.00     0.025 C 
ENDROOT
BRANCH  13  14
ATOM     14  C11 LG1 d5015      27.086  23.741  71.746  0.00  0.00    -0.029 A 
ATOM     15  C14 LG1 d5015      27.020  24.520  72.879  0.00  0.00     0.061 A 
ATOM     16  S1  LG1 d5015      27.657  23.717  74.250  0.00  0.00    -0.113 SA
ATOM     17  C13 LG1 d5015      28.024  22.321  73.329  0.00  0.00     0.050 A 
ATOM     18  C12 LG1 d5015      27.667  22.466  72.007  0.00  0.00     0.019 A 
ENDBRANCH  13  14
TORSDOF 1
ENDMDL
