REMARK INTER + INTRA:          -5.940
REMARK INTER:                  -5.771
REMARK INTRA:                  -0.169
REMARK UNBOUND:                -0.158
REMARK  1 active torsions:
REMARK  status: ('A' for Active; 'I' for Inactive)
REMARK    1  A    between atoms: C10_13  and  C11_14 
ROOT
ATOM      1  C1  LG1 d5015      26.497  25.271  69.822  0.00  0.00     0.018 C 
ATOM      2  C2  LG1 d5015      27.117  24.032  70.355  0.00  0.00     0.193 C 
ATOM      3  C3  LG1 d5015      27.038  23.891  71.825  0.00  0.00     0.049 A 
ATOM      4  C4  LG1 d5015      27.680  22.827  72.462  0.00  0.00     0.037 A 
ATOM      5  C5  LG1 d5015      27.551  22.668  73.842  0.00  0.00     0.012 A 
ATOM      6  C6  LG1 d5015      26.776  23.561  74.583  0.00  0.00     0.022 A 
ATOM      7  C7  LG1 d5015      26.131  24.622  73.945  0.00  0.00     0.039 A 
ATOM      8  C8  LG1 d5015      26.275  24.799  72.569  0.00  0.00     0.083 A 
ATOM      9  O1  LG1 d5015      25.602  25.850  72.005  0.00  0.00    -0.346 OA
ATOM     10  C9  LG1 d5015      26.229  26.351  70.820  0.00  0.00     0.218 C 
ATOM     11 BR1  LG1 d5015      28.443  21.247  74.716  0.00  0.00    -0.051 Br
ATOM     12  O2  LG1 d5015      27.653  23.186  69.655  0.00  0.00    -0.287 OA
ATOM     13  C10 LG1 d5015      26.223  25.359  68.515  0.00  0.00     0.025 C 
ENDROOT
BRANCH  13  14
ATOM     14  C11 LG1 d5015      25.627  26.498  67.885  0.00  0.00    -0.029 A 
ATOM     15  C14 LG1 d5015      24.267  26.639  67.727  0.00  0.00     0.061 A 
ATOM     16  S1  LG1 d5015      23.860  28.104  66.941  0.00  0.00    -0.113 SA
ATOM     17  C13 LG1 d5015      25.506  28.555  66.809  0.00  0.00     0.050 A 
ATOM     18  C12 LG1 d5015      26.345  27.609  67.353  0.00  0.00     0.019 A 
ENDBRANCH  13  14
TORSDOF 1
ENDMDL
