REMARK INTER + INTRA:          -5.367
REMARK INTER:                  -5.199
REMARK INTRA:                  -0.168
REMARK UNBOUND:                -0.163
REMARK  1 active torsions:
REMARK  status: ('A' for Active; 'I' for Inactive)
REMARK    1  A    between atoms: C10_13  and  C11_14 
ROOT
ATOM      1  C1  LG1 d5015      24.368  24.419  69.953  0.00  0.00     0.018 C 
ATOM      2  C2  LG1 d5015      24.996  23.259  70.633  0.00  0.00     0.193 C 
ATOM      3  C3  LG1 d5015      25.867  23.614  71.772  0.00  0.00     0.049 A 
ATOM      4  C4  LG1 d5015      26.604  22.624  72.426  0.00  0.00     0.037 A 
ATOM      5  C5  LG1 d5015      27.377  22.959  73.538  0.00  0.00     0.012 A 
ATOM      6  C6  LG1 d5015      27.407  24.274  74.004  0.00  0.00     0.022 A 
ATOM      7  C7  LG1 d5015      26.667  25.262  73.353  0.00  0.00     0.039 A 
ATOM      8  C8  LG1 d5015      25.910  24.938  72.227  0.00  0.00     0.083 A 
ATOM      9  O1  LG1 d5015      25.195  25.952  71.647  0.00  0.00    -0.346 OA
ATOM     10  C9  LG1 d5015      24.970  25.755  70.247  0.00  0.00     0.218 C 
ATOM     11 BR1  LG1 d5015      28.403  21.630  74.409  0.00  0.00    -0.051 Br
ATOM     12  O2  LG1 d5015      24.820  22.097  70.293  0.00  0.00    -0.287 OA
ATOM     13  C10 LG1 d5015      23.330  24.218  69.132  0.00  0.00     0.025 C 
ENDROOT
BRANCH  13  14
ATOM     14  C11 LG1 d5015      22.642  25.254  68.423  0.00  0.00    -0.029 A 
ATOM     15  C14 LG1 d5015      21.543  25.907  68.933  0.00  0.00     0.061 A 
ATOM     16  S1  LG1 d5015      20.943  27.094  67.854  0.00  0.00    -0.113 SA
ATOM     17  C13 LG1 d5015      22.155  26.736  66.700  0.00  0.00     0.050 A 
ATOM     18  C12 LG1 d5015      22.998  25.735  67.129  0.00  0.00     0.019 A 
ENDBRANCH  13  14
TORSDOF 1
ENDMDL
