REMARK INTER + INTRA:          -5.934
REMARK INTER:                  -5.770
REMARK INTRA:                  -0.164
REMARK UNBOUND:                -0.163
REMARK  1 active torsions:
REMARK  status: ('A' for Active; 'I' for Inactive)
REMARK    1  A    between atoms: C10_13  and  C11_14 
ROOT
ATOM      1  C1  LG1 d5015      26.519  25.260  69.809  0.00  0.00     0.018 C 
ATOM      2  C2  LG1 d5015      27.135  24.018  70.341  0.00  0.00     0.193 C 
ATOM      3  C3  LG1 d5015      27.063  23.880  71.811  0.00  0.00     0.049 A 
ATOM      4  C4  LG1 d5015      27.703  22.814  72.445  0.00  0.00     0.037 A 
ATOM      5  C5  LG1 d5015      27.580  22.657  73.827  0.00  0.00     0.012 A 
ATOM      6  C6  LG1 d5015      26.814  23.555  74.571  0.00  0.00     0.022 A 
ATOM      7  C7  LG1 d5015      26.172  24.619  73.935  0.00  0.00     0.039 A 
ATOM      8  C8  LG1 d5015      26.309  24.793  72.558  0.00  0.00     0.083 A 
ATOM      9  O1  LG1 d5015      25.638  25.847  71.996  0.00  0.00    -0.346 OA
ATOM     10  C9  LG1 d5015      26.262  26.343  70.806  0.00  0.00     0.218 C 
ATOM     11 BR1  LG1 d5015      28.469  21.233  74.697  0.00  0.00    -0.051 Br
ATOM     12  O2  LG1 d5015      27.663  23.169  69.638  0.00  0.00    -0.287 OA
ATOM     13  C10 LG1 d5015      26.239  25.348  68.503  0.00  0.00     0.025 C 
ENDROOT
BRANCH  13  14
ATOM     14  C11 LG1 d5015      25.646  26.490  67.874  0.00  0.00    -0.029 A 
ATOM     15  C14 LG1 d5015      24.287  26.624  67.697  0.00  0.00     0.061 A 
ATOM     16  S1  LG1 d5015      23.883  28.094  66.918  0.00  0.00    -0.113 SA
ATOM     17  C13 LG1 d5015      25.528  28.555  66.815  0.00  0.00     0.050 A 
ATOM     18  C12 LG1 d5015      26.365  27.609  67.364  0.00  0.00     0.019 A 
ENDBRANCH  13  14
TORSDOF 1
ENDMDL
