REMARK INTER + INTRA:          -5.957
REMARK INTER:                  -5.789
REMARK INTRA:                  -0.169
REMARK UNBOUND:                 0.011
REMARK  1 active torsions:
REMARK  status: ('A' for Active; 'I' for Inactive)
REMARK    1  A    between atoms: C10_13  and  C11_14 
ROOT
ATOM      1  C1  LG1 d5015      26.545  25.283  69.831  0.00  0.00     0.018 C 
ATOM      2  C2  LG1 d5015      27.147  24.039  70.373  0.00  0.00     0.193 C 
ATOM      3  C3  LG1 d5015      27.046  23.900  71.841  0.00  0.00     0.049 A 
ATOM      4  C4  LG1 d5015      27.671  22.831  72.487  0.00  0.00     0.037 A 
ATOM      5  C5  LG1 d5015      27.520  22.673  73.866  0.00  0.00     0.012 A 
ATOM      6  C6  LG1 d5015      26.740  23.571  74.596  0.00  0.00     0.022 A 
ATOM      7  C7  LG1 d5015      26.113  24.637  73.948  0.00  0.00     0.039 A 
ATOM      8  C8  LG1 d5015      26.279  24.813  72.575  0.00  0.00     0.083 A 
ATOM      9  O1  LG1 d5015      25.622  25.869  72.001  0.00  0.00    -0.346 OA
ATOM     10  C9  LG1 d5015      26.270  26.365  70.825  0.00  0.00     0.218 C 
ATOM     11 BR1  LG1 d5015      28.388  21.245  74.752  0.00  0.00    -0.051 Br
ATOM     12  O2  LG1 d5015      27.688  23.190  69.680  0.00  0.00    -0.287 OA
ATOM     13  C10 LG1 d5015      26.291  25.373  68.520  0.00  0.00     0.025 C 
ENDROOT
BRANCH  13  14
ATOM     14  C11 LG1 d5015      25.713  26.517  67.881  0.00  0.00    -0.029 A 
ATOM     15  C14 LG1 d5015      24.355  26.672  67.711  0.00  0.00     0.061 A 
ATOM     16  S1  LG1 d5015      23.971  28.139  66.917  0.00  0.00    -0.113 SA
ATOM     17  C13 LG1 d5015      25.623  28.571  66.798  0.00  0.00     0.050 A 
ATOM     18  C12 LG1 d5015      26.448  27.618  67.352  0.00  0.00     0.019 A 
ENDBRANCH  13  14
TORSDOF 1
ENDMDL
