REMARK INTER + INTRA:          -6.594
REMARK INTER:                  -6.391
REMARK INTRA:                  -0.203
REMARK UNBOUND:                -0.023
REMARK  1 active torsions:
REMARK  status: ('A' for Active; 'I' for Inactive)
REMARK    1  A    between atoms: C1_1  and  N1_10 
ROOT
ATOM      1  C1  LG1 d5015      25.880  23.437  70.612  0.00  0.00     0.056 A 
ATOM      2  C2  LG1 d5015      25.295  23.487  71.877  0.00  0.00    -0.033 A 
ATOM      3  C3  LG1 d5015      26.013  23.057  72.994  0.00  0.00     0.028 A 
ATOM      4  C4  LG1 d5015      27.314  22.578  72.846  0.00  0.00     0.012 A 
ATOM      5  C5  LG1 d5015      27.898  22.527  71.579  0.00  0.00     0.028 A 
ATOM      6  C6  LG1 d5015      27.181  22.956  70.464  0.00  0.00    -0.033 A 
ATOM      7  C7  LG1 d5015      27.833  22.890  69.120  0.00  0.00     0.050 C 
ATOM      8 BR1  LG1 d5015      28.285  21.995  74.359  0.00  0.00    -0.051 Br
ATOM      9  C8  LG1 d5015      23.904  23.997  72.068  0.00  0.00     0.050 C 
ENDROOT
BRANCH   1  10
ATOM     10  N1  LG1 d5015      25.142  23.880  69.463  0.00  0.00    -0.265 N 
ATOM     11  C11 LG1 d5015      25.104  25.202  69.020  0.00  0.00     0.148 C 
ATOM     12  S2  LG1 d5015      26.014  26.529  69.488  0.00  0.00    -0.052 SA
ATOM     13  S1  LG1 d5015      23.948  25.343  67.701  0.00  0.00    -0.090 SA
ATOM     14  C10 LG1 d5015      23.735  23.571  67.534  0.00  0.00     0.185 C 
ATOM     15  C9  LG1 d5015      24.392  22.948  68.731  0.00  0.00     0.239 C 
ATOM     16  O1  LG1 d5015      24.230  21.757  68.985  0.00  0.00    -0.272 OA
ENDBRANCH   1  10
TORSDOF 1
ENDMDL
