MODEL 1
REMARK VINA RESULT:    -7.085      0.000      0.000
REMARK INTER + INTRA:          -8.284
REMARK INTER:                  -7.787
REMARK INTRA:                  -0.497
REMARK UNBOUND:                -0.370
REMARK  2 active torsions:
REMARK  status: ('A' for Active; 'I' for Inactive)
REMARK    1  A    between atoms: C1_1  and  N1_15 
REMARK    2  A    between atoms: C7_9  and  C4_4 
ROOT
ATOM      1  C1  LG1 d5015      26.215  23.153  71.406  0.00  0.00     0.141 A 
ATOM      2  C2  LG1 d5015      26.943  23.151  70.216  0.00  0.00     0.187 A 
ATOM      3  C3  LG1 d5015      26.276  23.163  68.991  0.00  0.00     0.175 A 
ATOM      4  C4  LG1 d5015      24.882  23.177  68.955  0.00  0.00     0.131 A 
ATOM      5  C5  LG1 d5015      24.154  23.177  70.144  0.00  0.00     0.175 A 
ATOM      6  C6  LG1 d5015      24.820  23.166  71.369  0.00  0.00     0.187 A 
ATOM      7  F1  LG1 d5015      24.107  23.167  72.504  0.00  0.00    -0.200 F 
ATOM      8  F2  LG1 d5015      22.813  23.189  70.119  0.00  0.00    -0.202 F 
ATOM      9  F6  LG1 d5015      26.987  23.163  67.852  0.00  0.00    -0.202 F 
ATOM     10  F7  LG1 d5015      28.283  23.139  70.236  0.00  0.00    -0.200 F 
ENDROOT
BRANCH   1  11
ATOM     11  N1  LG1 d5015      26.874  23.140  72.621  0.00  0.00    -0.232 N 
ATOM     12  N2  LG1 d5015      27.334  21.979  73.119  0.00  0.00    -0.172 NA
ATOM     13  C10 LG1 d5015      27.896  22.346  74.273  0.00  0.00     0.053 A 
ATOM     14  C9  LG1 d5015      27.796  23.730  74.511  0.00  0.00     0.055 A 
ATOM     15  C11 LG1 d5015      28.530  21.332  75.133  0.00  0.00     0.072 C 
ATOM     16  C8  LG1 d5015      27.125  24.218  73.417  0.00  0.00     0.035 A 
ATOM     17  C12 LG1 d5015      26.716  25.595  73.078  0.00  0.00     0.070 C 
ENDBRANCH   1  11
BRANCH   4  18
ATOM     18  C7  LG1 d5015      24.170  23.189  67.643  0.00  0.00     0.423 C 
ATOM     19  F4  LG1 d5015      24.972  23.523  66.590  0.00  0.00    -0.166 F 
ATOM     20  F3  LG1 d5015      23.130  24.072  67.594  0.00  0.00    -0.166 F 
ATOM     21  F5  LG1 d5015      23.635  21.974  67.326  0.00  0.00    -0.166 F 
ENDBRANCH   4  18
TORSDOF 2
ENDMDL
MODEL 2
REMARK VINA RESULT:    -7.053      0.051      2.327
REMARK INTER + INTRA:          -8.248
REMARK INTER:                  -7.757
REMARK INTRA:                  -0.491
REMARK UNBOUND:                -0.370
REMARK  2 active torsions:
REMARK  status: ('A' for Active; 'I' for Inactive)
REMARK    1  A    between atoms: C1_1  and  N1_15 
REMARK    2  A    between atoms: C7_9  and  C4_4 
ROOT
ATOM      1  C1  LG1 d5015      26.224  23.169  71.431  0.00  0.00     0.141 A 
ATOM      2  C2  LG1 d5015      24.830  23.201  71.382  0.00  0.00     0.187 A 
ATOM      3  C3  LG1 d5015      24.176  23.220  70.150  0.00  0.00     0.175 A 
ATOM      4  C4  LG1 d5015      24.916  23.207  68.967  0.00  0.00     0.131 A 
ATOM      5  C5  LG1 d5015      26.309  23.177  69.017  0.00  0.00     0.175 A 
ATOM      6  C6  LG1 d5015      26.962  23.157  70.248  0.00  0.00     0.187 A 
ATOM      7  F1  LG1 d5015      28.303  23.128  70.280  0.00  0.00    -0.200 F 
ATOM      8  F2  LG1 d5015      27.028  23.165  67.884  0.00  0.00    -0.202 F 
ATOM      9  F6  LG1 d5015      22.835  23.249  70.114  0.00  0.00    -0.202 F 
ATOM     10  F7  LG1 d5015      24.107  23.213  72.511  0.00  0.00    -0.200 F 
ENDROOT
BRANCH   1  11
ATOM     11  N1  LG1 d5015      26.873  23.151  72.652  0.00  0.00    -0.232 N 
ATOM     12  N2  LG1 d5015      27.308  21.985  73.160  0.00  0.00    -0.172 NA
ATOM     13  C10 LG1 d5015      27.867  22.349  74.317  0.00  0.00     0.053 A 
ATOM     14  C9  LG1 d5015      27.789  23.736  74.547  0.00  0.00     0.055 A 
ATOM     15  C11 LG1 d5015      28.475  21.328  75.188  0.00  0.00     0.072 C 
ATOM     16  C8  LG1 d5015      27.136  24.230  73.444  0.00  0.00     0.035 A 
ATOM     17  C12 LG1 d5015      26.756  25.612  73.095  0.00  0.00     0.070 C 
ENDBRANCH   1  11
BRANCH   4  18
ATOM     18  C7  LG1 d5015      24.216  23.228  67.650  0.00  0.00     0.423 C 
ATOM     19  F4  LG1 d5015      25.025  23.573  66.606  0.00  0.00    -0.166 F 
ATOM     20  F3  LG1 d5015      23.174  24.110  67.599  0.00  0.00    -0.166 F 
ATOM     21  F5  LG1 d5015      23.685  22.015  67.318  0.00  0.00    -0.166 F 
ENDBRANCH   4  18
TORSDOF 2
ENDMDL
MODEL 3
REMARK VINA RESULT:    -6.898      2.432      6.325
REMARK INTER + INTRA:          -8.075
REMARK INTER:                  -7.617
REMARK INTRA:                  -0.459
REMARK UNBOUND:                -0.370
REMARK  2 active torsions:
REMARK  status: ('A' for Active; 'I' for Inactive)
REMARK    1  A    between atoms: C1_1  and  N1_15 
REMARK    2  A    between atoms: C7_9  and  C4_4 
ROOT
ATOM      1  C1  LG1 d5015      25.548  23.528  70.650  0.00  0.00     0.141 A 
ATOM      2  C2  LG1 d5015      24.947  23.677  71.900  0.00  0.00     0.187 A 
ATOM      3  C3  LG1 d5015      25.675  23.413  73.060  0.00  0.00     0.175 A 
ATOM      4  C4  LG1 d5015      27.004  22.999  72.970  0.00  0.00     0.131 A 
ATOM      5  C5  LG1 d5015      27.605  22.849  71.721  0.00  0.00     0.175 A 
ATOM      6  C6  LG1 d5015      26.877  23.114  70.561  0.00  0.00     0.187 A 
ATOM      7  F1  LG1 d5015      27.468  22.966  69.367  0.00  0.00    -0.200 F 
ATOM      8  F2  LG1 d5015      28.882  22.451  71.625  0.00  0.00    -0.202 F 
ATOM      9  F6  LG1 d5015      25.088  23.560  74.257  0.00  0.00    -0.202 F 
ATOM     10  F7  LG1 d5015      23.670  24.075  72.001  0.00  0.00    -0.200 F 
ENDROOT
BRANCH   1  11
ATOM     11  N1  LG1 d5015      24.827  23.790  69.500  0.00  0.00    -0.232 N 
ATOM     12  N2  LG1 d5015      24.612  25.061  69.121  0.00  0.00    -0.172 NA
ATOM     13  C10 LG1 d5015      23.900  24.927  68.000  0.00  0.00     0.053 A 
ATOM     14  C9  LG1 d5015      23.660  23.580  67.665  0.00  0.00     0.055 A 
ATOM     15  C11 LG1 d5015      23.460  26.125  67.264  0.00  0.00     0.072 C 
ATOM     16  C8  LG1 d5015      24.278  22.865  68.662  0.00  0.00     0.035 A 
ATOM     17  C12 LG1 d5015      24.384  21.408  68.871  0.00  0.00     0.070 C 
ENDBRANCH   1  11
BRANCH   4  18
ATOM     18  C7  LG1 d5015      27.782  22.716  74.212  0.00  0.00     0.423 C 
ATOM     19  F4  LG1 d5015      28.248  21.434  74.284  0.00  0.00    -0.166 F 
ATOM     20  F3  LG1 d5015      27.066  22.900  75.360  0.00  0.00    -0.166 F 
ATOM     21  F5  LG1 d5015      28.882  23.514  74.335  0.00  0.00    -0.166 F 
ENDBRANCH   4  18
TORSDOF 2
ENDMDL
MODEL 4
REMARK VINA RESULT:    -6.897      2.428      5.892
REMARK INTER + INTRA:          -8.074
REMARK INTER:                  -7.607
REMARK INTRA:                  -0.467
REMARK UNBOUND:                -0.370
REMARK  2 active torsions:
REMARK  status: ('A' for Active; 'I' for Inactive)
REMARK    1  A    between atoms: C1_1  and  N1_15 
REMARK    2  A    between atoms: C7_9  and  C4_4 
ROOT
ATOM      1  C1  LG1 d5015      25.579  23.522  70.623  0.00  0.00     0.141 A 
ATOM      2  C2  LG1 d5015      26.905  23.100  70.518  0.00  0.00     0.187 A 
ATOM      3  C3  LG1 d5015      27.642  22.824  71.669  0.00  0.00     0.175 A 
ATOM      4  C4  LG1 d5015      27.055  22.971  72.926  0.00  0.00     0.131 A 
ATOM      5  C5  LG1 d5015      25.730  23.393  73.031  0.00  0.00     0.175 A 
ATOM      6  C6  LG1 d5015      24.993  23.668  71.880  0.00  0.00     0.187 A 
ATOM      7  F1  LG1 d5015      23.720  24.073  71.997  0.00  0.00    -0.200 F 
ATOM      8  F2  LG1 d5015      25.157  23.537  74.236  0.00  0.00    -0.202 F 
ATOM      9  F6  LG1 d5015      28.916  22.419  71.556  0.00  0.00    -0.202 F 
ATOM     10  F7  LG1 d5015      27.482  22.955  69.316  0.00  0.00    -0.200 F 
ENDROOT
BRANCH   1  11
ATOM     11  N1  LG1 d5015      24.847  23.796  69.482  0.00  0.00    -0.232 N 
ATOM     12  N2  LG1 d5015      24.644  25.072  69.110  0.00  0.00    -0.172 NA
ATOM     13  C10 LG1 d5015      23.916  24.950  67.998  0.00  0.00     0.053 A 
ATOM     14  C9  LG1 d5015      23.656  23.608  67.661  0.00  0.00     0.055 A 
ATOM     15  C11 LG1 d5015      23.483  26.156  67.271  0.00  0.00     0.072 C 
ATOM     16  C8  LG1 d5015      24.276  22.881  68.648  0.00  0.00     0.035 A 
ATOM     17  C12 LG1 d5015      24.366  21.422  68.852  0.00  0.00     0.070 C 
ENDBRANCH   1  11
BRANCH   4  18
ATOM     18  C7  LG1 d5015      27.845  22.676  74.157  0.00  0.00     0.423 C 
ATOM     19  F4  LG1 d5015      28.303  21.392  74.218  0.00  0.00    -0.166 F 
ATOM     20  F3  LG1 d5015      27.144  22.861  75.314  0.00  0.00    -0.166 F 
ATOM     21  F5  LG1 d5015      28.952  23.466  74.271  0.00  0.00    -0.166 F 
ENDBRANCH   4  18
TORSDOF 2
ENDMDL
MODEL 5
REMARK VINA RESULT:    -6.648      1.528      2.500
REMARK INTER + INTRA:          -7.795
REMARK INTER:                  -7.425
REMARK INTRA:                  -0.370
REMARK UNBOUND:                -0.370
REMARK  2 active torsions:
REMARK  status: ('A' for Active; 'I' for Inactive)
REMARK    1  A    between atoms: C1_1  and  N1_15 
REMARK    2  A    between atoms: C7_9  and  C4_4 
ROOT
ATOM      1  C1  LG1 d5015      26.052  23.731  72.228  0.00  0.00     0.141 A 
ATOM      2  C2  LG1 d5015      26.807  23.354  71.118  0.00  0.00     0.187 A 
ATOM      3  C3  LG1 d5015      26.216  22.626  70.086  0.00  0.00     0.175 A 
ATOM      4  C4  LG1 d5015      24.869  22.273  70.164  0.00  0.00     0.131 A 
ATOM      5  C5  LG1 d5015      24.113  22.648  71.275  0.00  0.00     0.175 A 
ATOM      6  C6  LG1 d5015      24.705  23.377  72.306  0.00  0.00     0.187 A 
ATOM      7  F1  LG1 d5015      23.966  23.731  73.367  0.00  0.00    -0.200 F 
ATOM      8  F2  LG1 d5015      22.817  22.312  71.359  0.00  0.00    -0.202 F 
ATOM      9  F6  LG1 d5015      26.952  22.270  69.022  0.00  0.00    -0.202 F 
ATOM     10  F7  LG1 d5015      28.103  23.688  71.029  0.00  0.00    -0.200 F 
ENDROOT
BRANCH   1  11
ATOM     11  N1  LG1 d5015      26.637  24.452  73.252  0.00  0.00    -0.232 N 
ATOM     12  N2  LG1 d5015      26.370  25.763  73.383  0.00  0.00    -0.172 NA
ATOM     13  C10 LG1 d5015      27.093  26.115  74.448  0.00  0.00     0.053 A 
ATOM     14  C9  LG1 d5015      27.818  25.038  74.994  0.00  0.00     0.055 A 
ATOM     15  C11 LG1 d5015      27.065  27.509  74.923  0.00  0.00     0.072 C 
ATOM     16  C8  LG1 d5015      27.499  23.970  74.192  0.00  0.00     0.035 A 
ATOM     17  C12 LG1 d5015      27.939  22.562  74.250  0.00  0.00     0.070 C 
ENDBRANCH   1  11
BRANCH   4  18
ATOM     18  C7  LG1 d5015      24.237  21.493  69.060  0.00  0.00     0.423 C 
ATOM     19  F4  LG1 d5015      23.896  22.253  67.980  0.00  0.00    -0.166 F 
ATOM     20  F3  LG1 d5015      23.085  20.859  69.429  0.00  0.00    -0.166 F 
ATOM     21  F5  LG1 d5015      25.055  20.513  68.576  0.00  0.00    -0.166 F 
ENDBRANCH   4  18
TORSDOF 2
ENDMDL
