REMARK INTER + INTRA:          -6.619
REMARK INTER:                  -6.416
REMARK INTRA:                  -0.203
REMARK UNBOUND:                -0.033
REMARK  1 active torsions:
REMARK  status: ('A' for Active; 'I' for Inactive)
REMARK    1  A    between atoms: C1_1  and  N1_10 
ROOT
ATOM      1  C1  LG1 d5015      25.935  23.471  70.749  0.00  0.00     0.056 A 
ATOM      2  C2  LG1 d5015      27.204  22.914  70.598  0.00  0.00    -0.033 A 
ATOM      3  C3  LG1 d5015      27.908  22.469  71.718  0.00  0.00     0.028 A 
ATOM      4  C4  LG1 d5015      27.342  22.580  72.987  0.00  0.00     0.012 A 
ATOM      5  C5  LG1 d5015      26.071  23.140  73.138  0.00  0.00     0.028 A 
ATOM      6  C6  LG1 d5015      25.370  23.584  72.019  0.00  0.00    -0.033 A 
ATOM      7  C7  LG1 d5015      24.011  24.177  72.212  0.00  0.00     0.050 C 
ATOM      8 BR1  LG1 d5015      28.296  21.979  74.504  0.00  0.00    -0.051 Br
ATOM      9  C8  LG1 d5015      27.836  22.778  69.250  0.00  0.00     0.050 C 
ENDROOT
BRANCH   1  10
ATOM     10  N1  LG1 d5015      25.210  23.928  69.597  0.00  0.00    -0.265 N 
ATOM     11  C11 LG1 d5015      24.343  23.129  68.851  0.00  0.00     0.148 C 
ATOM     12  S2  LG1 d5015      23.731  21.601  69.169  0.00  0.00    -0.052 SA
ATOM     13  S1  LG1 d5015      23.809  24.018  67.428  0.00  0.00    -0.090 SA
ATOM     14  C10 LG1 d5015      24.505  25.572  67.986  0.00  0.00     0.185 C 
ATOM     15  C9  LG1 d5015      25.379  25.250  69.164  0.00  0.00     0.239 C 
ATOM     16  O1  LG1 d5015      26.141  26.096  69.626  0.00  0.00    -0.272 OA
ENDBRANCH   1  10
TORSDOF 1
ENDMDL
