REMARK INTER + INTRA:          -5.368
REMARK INTER:                  -5.199
REMARK INTRA:                  -0.169
REMARK UNBOUND:                -0.109
REMARK  1 active torsions:
REMARK  status: ('A' for Active; 'I' for Inactive)
REMARK    1  A    between atoms: C10_13  and  C11_14 
ROOT
ATOM      1  C1  LG1 d5015      24.463  24.351  69.996  0.00  0.00     0.018 C 
ATOM      2  C2  LG1 d5015      25.106  23.204  70.683  0.00  0.00     0.193 C 
ATOM      3  C3  LG1 d5015      25.980  23.579  71.815  0.00  0.00     0.049 A 
ATOM      4  C4  LG1 d5015      26.731  22.603  72.473  0.00  0.00     0.037 A 
ATOM      5  C5  LG1 d5015      27.507  22.956  73.578  0.00  0.00     0.012 A 
ATOM      6  C6  LG1 d5015      27.526  24.276  74.032  0.00  0.00     0.022 A 
ATOM      7  C7  LG1 d5015      26.771  25.250  73.375  0.00  0.00     0.039 A 
ATOM      8  C8  LG1 d5015      26.012  24.907  72.257  0.00  0.00     0.083 A 
ATOM      9  O1  LG1 d5015      25.283  25.908  71.672  0.00  0.00    -0.346 OA
ATOM     10  C9  LG1 d5015      25.053  25.696  70.275  0.00  0.00     0.218 C 
ATOM     11 BR1  LG1 d5015      28.551  21.645  74.455  0.00  0.00    -0.051 Br
ATOM     12  O2  LG1 d5015      24.941  22.038  70.355  0.00  0.00    -0.287 OA
ATOM     13  C10 LG1 d5015      23.423  24.131  69.183  0.00  0.00     0.025 C 
ENDROOT
BRANCH  13  14
ATOM     14  C11 LG1 d5015      22.720  25.154  68.468  0.00  0.00    -0.029 A 
ATOM     15  C14 LG1 d5015      21.616  25.799  68.978  0.00  0.00     0.061 A 
ATOM     16  S1  LG1 d5015      20.999  26.970  67.893  0.00  0.00    -0.113 SA
ATOM     17  C13 LG1 d5015      22.209  26.617  66.735  0.00  0.00     0.050 A 
ATOM     18  C12 LG1 d5015      23.064  25.628  67.169  0.00  0.00     0.019 A 
ENDBRANCH  13  14
TORSDOF 1
ENDMDL
