REMARK INTER + INTRA:          -5.405
REMARK INTER:                  -5.295
REMARK INTRA:                  -0.109
REMARK UNBOUND:                -0.109
REMARK  1 active torsions:
REMARK  status: ('A' for Active; 'I' for Inactive)
REMARK    1  A    between atoms: C10_13  and  C11_14 
ROOT
ATOM      1  C1  LG1 d5015      25.674  26.904  69.028  0.00  0.00     0.018 C 
ATOM      2  C2  LG1 d5015      26.042  26.415  70.380  0.00  0.00     0.193 C 
ATOM      3  C3  LG1 d5015      26.626  25.057  70.403  0.00  0.00     0.049 A 
ATOM      4  C4  LG1 d5015      26.911  24.437  71.621  0.00  0.00     0.037 A 
ATOM      5  C5  LG1 d5015      27.518  23.181  71.632  0.00  0.00     0.012 A 
ATOM      6  C6  LG1 d5015      27.848  22.549  70.433  0.00  0.00     0.022 A 
ATOM      7  C7  LG1 d5015      27.566  23.170  69.215  0.00  0.00     0.039 A 
ATOM      8  C8  LG1 d5015      26.940  24.417  69.198  0.00  0.00     0.083 A 
ATOM      9  O1  LG1 d5015      26.708  24.977  67.969  0.00  0.00    -0.346 OA
ATOM     10  C9  LG1 d5015      25.585  25.865  67.958  0.00  0.00     0.218 C 
ATOM     11 BR1  LG1 d5015      27.878  22.322  73.278  0.00  0.00    -0.051 Br
ATOM     12  O2  LG1 d5015      25.882  27.065  71.403  0.00  0.00    -0.287 OA
ATOM     13  C10 LG1 d5015      25.441  28.209  68.842  0.00  0.00     0.025 C 
ENDROOT
BRANCH  13  14
ATOM     14  C11 LG1 d5015      25.080  28.799  67.588  0.00  0.00    -0.029 A 
ATOM     15  C14 LG1 d5015      23.799  28.765  67.087  0.00  0.00     0.061 A 
ATOM     16  S1  LG1 d5015      23.679  29.555  65.573  0.00  0.00    -0.113 SA
ATOM     17  C13 LG1 d5015      25.346  29.944  65.583  0.00  0.00     0.050 A 
ATOM     18  C12 LG1 d5015      25.977  29.482  66.717  0.00  0.00     0.019 A 
ENDBRANCH  13  14
TORSDOF 1
ENDMDL
