REMARK INTER + INTRA:          -6.214
REMARK INTER:                  -6.091
REMARK INTRA:                  -0.123
REMARK UNBOUND:                -0.148
REMARK  1 active torsions:
REMARK  status: ('A' for Active; 'I' for Inactive)
REMARK    1  A    between atoms: C10_13  and  C11_14 
ROOT
ATOM      1  C1  LG1 d5015      23.817  25.481  68.539  0.00  0.00     0.018 C 
ATOM      2  C2  LG1 d5015      24.460  25.337  69.869  0.00  0.00     0.193 C 
ATOM      3  C3  LG1 d5015      25.589  24.383  69.903  0.00  0.00     0.049 A 
ATOM      4  C4  LG1 d5015      26.206  24.072  71.116  0.00  0.00     0.037 A 
ATOM      5  C5  LG1 d5015      27.310  23.218  71.131  0.00  0.00     0.012 A 
ATOM      6  C6  LG1 d5015      27.802  22.683  69.940  0.00  0.00     0.022 A 
ATOM      7  C7  LG1 d5015      27.186  22.997  68.728  0.00  0.00     0.039 A 
ATOM      8  C8  LG1 d5015      26.069  23.833  68.709  0.00  0.00     0.083 A 
ATOM      9  O1  LG1 d5015      25.525  24.113  67.483  0.00  0.00    -0.346 OA
ATOM     10  C9  LG1 d5015      24.126  24.411  67.542  0.00  0.00     0.218 C 
ATOM     11 BR1  LG1 d5015      28.132  22.769  72.775  0.00  0.00    -0.051 Br
ATOM     12  O2  LG1 d5015      24.100  25.946  70.865  0.00  0.00    -0.287 OA
ATOM     13  C10 LG1 d5015      23.014  26.526  68.307  0.00  0.00     0.025 C 
ENDROOT
BRANCH  13  14
ATOM     14  C11 LG1 d5015      22.339  26.773  67.068  0.00  0.00    -0.029 A 
ATOM     15  C14 LG1 d5015      22.777  27.702  66.151  0.00  0.00     0.061 A 
ATOM     16  S1  LG1 d5015      21.766  27.769  64.771  0.00  0.00    -0.113 SA
ATOM     17  C13 LG1 d5015      20.738  26.552  65.397  0.00  0.00     0.050 A 
ATOM     18  C12 LG1 d5015      21.159  26.106  66.630  0.00  0.00     0.019 A 
ENDBRANCH  13  14
TORSDOF 1
ENDMDL
