REMARK INTER + INTRA:          -5.172
REMARK INTER:                  -5.183
REMARK INTRA:                   0.011
REMARK UNBOUND:                 0.011
REMARK  1 active torsions:
REMARK  status: ('A' for Active; 'I' for Inactive)
REMARK    1  A    between atoms: C10_13  and  C11_14 
ROOT
ATOM      1  C1  LG1 d5015      26.329  24.508  71.607  0.00  0.00     0.018 C 
ATOM      2  C2  LG1 d5015      25.900  25.705  70.842  0.00  0.00     0.193 C 
ATOM      3  C3  LG1 d5015      24.956  25.421  69.740  0.00  0.00     0.049 A 
ATOM      4  C4  LG1 d5015      24.563  26.444  68.874  0.00  0.00     0.037 A 
ATOM      5  C5  LG1 d5015      23.626  26.180  67.875  0.00  0.00     0.012 A 
ATOM      6  C6  LG1 d5015      23.075  24.905  67.745  0.00  0.00     0.022 A 
ATOM      7  C7  LG1 d5015      23.466  23.884  68.613  0.00  0.00     0.039 A 
ATOM      8  C8  LG1 d5015      24.419  24.136  69.600  0.00  0.00     0.083 A 
ATOM      9  O1  LG1 d5015      24.743  23.094  70.428  0.00  0.00    -0.346 OA
ATOM     10  C9  LG1 d5015      26.070  23.187  70.957  0.00  0.00     0.218 C 
ATOM     11 BR1  LG1 d5015      23.112  27.553  66.679  0.00  0.00    -0.051 Br
ATOM     12  O2  LG1 d5015      26.283  26.839  71.086  0.00  0.00    -0.287 OA
ATOM     13  C10 LG1 d5015      26.914  24.665  72.801  0.00  0.00     0.025 C 
ENDROOT
BRANCH  13  14
ATOM     14  C11 LG1 d5015      27.369  23.591  73.631  0.00  0.00    -0.029 A 
ATOM     15  C14 LG1 d5015      26.850  23.340  74.882  0.00  0.00     0.061 A 
ATOM     16  S1  LG1 d5015      27.594  21.991  75.627  0.00  0.00    -0.113 SA
ATOM     17  C13 LG1 d5015      28.616  21.739  74.277  0.00  0.00     0.050 A 
ATOM     18  C12 LG1 d5015      28.393  22.662  73.281  0.00  0.00     0.019 A 
ENDBRANCH  13  14
TORSDOF 1
ENDMDL
