REMARK INTER + INTRA:          -6.616
REMARK INTER:                  -6.407
REMARK INTRA:                  -0.208
REMARK UNBOUND:                -0.023
REMARK  1 active torsions:
REMARK  status: ('A' for Active; 'I' for Inactive)
REMARK    1  A    between atoms: C1_1  and  N1_10 
ROOT
ATOM      1  C1  LG1 d5015      25.962  23.470  70.750  0.00  0.00     0.056 A 
ATOM      2  C2  LG1 d5015      27.221  22.891  70.596  0.00  0.00    -0.033 A 
ATOM      3  C3  LG1 d5015      27.923  22.440  71.714  0.00  0.00     0.028 A 
ATOM      4  C4  LG1 d5015      27.366  22.569  72.986  0.00  0.00     0.012 A 
ATOM      5  C5  LG1 d5015      26.106  23.150  73.140  0.00  0.00     0.028 A 
ATOM      6  C6  LG1 d5015      25.405  23.600  72.023  0.00  0.00    -0.033 A 
ATOM      7  C7  LG1 d5015      24.058  24.218  72.220  0.00  0.00     0.050 C 
ATOM      8 BR1  LG1 d5015      28.318  21.959  74.501  0.00  0.00    -0.051 Br
ATOM      9  C8  LG1 d5015      27.843  22.738  69.245  0.00  0.00     0.050 C 
ENDROOT
BRANCH   1  10
ATOM     10  N1  LG1 d5015      25.238  23.933  69.600  0.00  0.00    -0.265 N 
ATOM     11  C11 LG1 d5015      24.377  23.137  68.845  0.00  0.00     0.148 C 
ATOM     12  S2  LG1 d5015      23.772  21.605  69.149  0.00  0.00    -0.052 SA
ATOM     13  S1  LG1 d5015      23.843  24.035  67.428  0.00  0.00    -0.090 SA
ATOM     14  C10 LG1 d5015      24.532  25.588  68.000  0.00  0.00     0.185 C 
ATOM     15  C9  LG1 d5015      25.403  25.260  69.177  0.00  0.00     0.239 C 
ATOM     16  O1  LG1 d5015      26.160  26.105  69.649  0.00  0.00    -0.272 OA
ENDBRANCH   1  10
TORSDOF 1
ENDMDL
