REMARK INTER + INTRA:          -5.487
REMARK INTER:                  -5.464
REMARK INTRA:                  -0.023
REMARK UNBOUND:                -0.023
REMARK  1 active torsions:
REMARK  status: ('A' for Active; 'I' for Inactive)
REMARK    1  A    between atoms: C1_1  and  N1_10 
ROOT
ATOM      1  C1  LG1 d5015      26.813  24.138  73.144  0.00  0.00     0.056 A 
ATOM      2  C2  LG1 d5015      26.534  24.970  72.060  0.00  0.00    -0.033 A 
ATOM      3  C3  LG1 d5015      26.765  24.520  70.759  0.00  0.00     0.028 A 
ATOM      4  C4  LG1 d5015      27.273  23.240  70.543  0.00  0.00     0.012 A 
ATOM      5  C5  LG1 d5015      27.553  22.408  71.629  0.00  0.00     0.028 A 
ATOM      6  C6  LG1 d5015      27.323  22.858  72.928  0.00  0.00    -0.033 A 
ATOM      7  C7  LG1 d5015      27.632  21.944  74.070  0.00  0.00     0.050 C 
ATOM      8 BR1  LG1 d5015      27.587  22.632  68.781  0.00  0.00    -0.051 Br
ATOM      9  C8  LG1 d5015      25.987  26.346  72.259  0.00  0.00     0.050 C 
ENDROOT
BRANCH   1  10
ATOM     10  N1  LG1 d5015      26.575  24.599  74.482  0.00  0.00    -0.265 N 
ATOM     11  C11 LG1 d5015      25.314  24.659  75.076  0.00  0.00     0.148 C 
ATOM     12  S2  LG1 d5015      23.844  24.039  74.565  0.00  0.00    -0.052 SA
ATOM     13  S1  LG1 d5015      25.444  25.449  76.644  0.00  0.00    -0.090 SA
ATOM     14  C10 LG1 d5015      27.236  25.430  76.643  0.00  0.00     0.185 C 
ATOM     15  C9  LG1 d5015      27.658  25.039  75.256  0.00  0.00     0.239 C 
ATOM     16  O1  LG1 d5015      28.832  25.138  74.908  0.00  0.00    -0.272 OA
ENDBRANCH   1  10
TORSDOF 1
ENDMDL
