REMARK INTER + INTRA:          -5.368
REMARK INTER:                  -5.208
REMARK INTRA:                  -0.161
REMARK UNBOUND:                -0.158
REMARK  1 active torsions:
REMARK  status: ('A' for Active; 'I' for Inactive)
REMARK    1  A    between atoms: C10_13  and  C11_14 
ROOT
ATOM      1  C1  LG1 d5015      24.339  24.319  69.894  0.00  0.00     0.018 C 
ATOM      2  C2  LG1 d5015      25.008  23.181  70.573  0.00  0.00     0.193 C 
ATOM      3  C3  LG1 d5015      25.878  23.568  71.703  0.00  0.00     0.049 A 
ATOM      4  C4  LG1 d5015      26.650  22.604  72.354  0.00  0.00     0.037 A 
ATOM      5  C5  LG1 d5015      27.422  22.967  73.458  0.00  0.00     0.012 A 
ATOM      6  C6  LG1 d5015      27.416  24.284  73.918  0.00  0.00     0.022 A 
ATOM      7  C7  LG1 d5015      26.641  25.246  73.269  0.00  0.00     0.039 A 
ATOM      8  C8  LG1 d5015      25.884  24.894  72.152  0.00  0.00     0.083 A 
ATOM      9  O1  LG1 d5015      25.133  25.883  71.574  0.00  0.00    -0.346 OA
ATOM     10  C9  LG1 d5015      24.903  25.673  70.177  0.00  0.00     0.218 C 
ATOM     11 BR1  LG1 d5015      28.495  21.673  74.325  0.00  0.00    -0.051 Br
ATOM     12  O2  LG1 d5015      24.865  22.013  70.239  0.00  0.00    -0.287 OA
ATOM     13  C10 LG1 d5015      23.301  24.082  69.083  0.00  0.00     0.025 C 
ENDROOT
BRANCH  13  14
ATOM     14  C11 LG1 d5015      22.576  25.094  68.375  0.00  0.00    -0.029 A 
ATOM     15  C14 LG1 d5015      22.818  25.403  67.055  0.00  0.00     0.061 A 
ATOM     16  S1  LG1 d5015      21.793  26.650  66.489  0.00  0.00    -0.113 SA
ATOM     17  C13 LG1 d5015      21.020  26.782  68.010  0.00  0.00     0.050 A 
ATOM     18  C12 LG1 d5015      21.533  25.893  68.928  0.00  0.00     0.019 A 
ENDBRANCH  13  14
TORSDOF 1
ENDMDL
