REMARK INTER + INTRA:          -5.290
REMARK INTER:                  -5.127
REMARK INTRA:                  -0.163
REMARK UNBOUND:                -0.163
REMARK  1 active torsions:
REMARK  status: ('A' for Active; 'I' for Inactive)
REMARK    1  A    between atoms: C10_13  and  C11_14 
ROOT
ATOM      1  C1  LG1 d5015      26.894  24.609  72.751  0.00  0.00     0.018 C 
ATOM      2  C2  LG1 d5015      27.266  24.959  74.145  0.00  0.00     0.193 C 
ATOM      3  C3  LG1 d5015      26.673  26.220  74.638  0.00  0.00     0.049 A 
ATOM      4  C4  LG1 d5015      27.032  26.719  75.892  0.00  0.00     0.037 A 
ATOM      5  C5  LG1 d5015      26.422  27.877  76.376  0.00  0.00     0.012 A 
ATOM      6  C6  LG1 d5015      25.450  28.530  75.617  0.00  0.00     0.022 A 
ATOM      7  C7  LG1 d5015      25.089  28.028  74.365  0.00  0.00     0.039 A 
ATOM      8  C8  LG1 d5015      25.711  26.884  73.867  0.00  0.00     0.083 A 
ATOM      9  O1  LG1 d5015      25.296  26.436  72.640  0.00  0.00    -0.346 OA
ATOM     10  C9  LG1 d5015      26.309  25.714  71.932  0.00  0.00     0.218 C 
ATOM     11 BR1  LG1 d5015      26.926  28.576  78.060  0.00  0.00    -0.051 Br
ATOM     12  O2  LG1 d5015      28.001  24.276  74.843  0.00  0.00    -0.287 OA
ATOM     13  C10 LG1 d5015      27.100  23.363  72.309  0.00  0.00     0.025 C 
ENDROOT
BRANCH  13  14
ATOM     14  C11 LG1 d5015      26.782  22.906  70.990  0.00  0.00    -0.029 A 
ATOM     15  C14 LG1 d5015      25.544  22.411  70.648  0.00  0.00     0.061 A 
ATOM     16  S1  LG1 d5015      25.471  21.947  69.001  0.00  0.00    -0.113 SA
ATOM     17  C13 LG1 d5015      27.098  22.407  68.742  0.00  0.00     0.050 A 
ATOM     18  C12 LG1 d5015      27.683  22.904  69.885  0.00  0.00     0.019 A 
ENDBRANCH  13  14
TORSDOF 1
ENDMDL
