REMARK INTER + INTRA:          -5.334
REMARK INTER:                  -5.175
REMARK INTRA:                  -0.158
REMARK UNBOUND:                -0.158
REMARK  1 active torsions:
REMARK  status: ('A' for Active; 'I' for Inactive)
REMARK    1  A    between atoms: C10_13  and  C11_14 
ROOT
ATOM      1  C1  LG1 d5015      25.471  24.066  70.579  0.00  0.00     0.018 C 
ATOM      2  C2  LG1 d5015      25.114  24.479  69.198  0.00  0.00     0.193 C 
ATOM      3  C3  LG1 d5015      23.726  24.965  69.045  0.00  0.00     0.049 A 
ATOM      4  C4  LG1 d5015      23.230  25.278  67.778  0.00  0.00     0.037 A 
ATOM      5  C5  LG1 d5015      21.940  25.794  67.649  0.00  0.00     0.012 A 
ATOM      6  C6  LG1 d5015      21.151  26.007  68.780  0.00  0.00     0.022 A 
ATOM      7  C7  LG1 d5015      21.649  25.698  70.047  0.00  0.00     0.039 A 
ATOM      8  C8  LG1 d5015      22.930  25.161  70.180  0.00  0.00     0.083 A 
ATOM      9  O1  LG1 d5015      23.362  24.897  71.453  0.00  0.00    -0.346 OA
ATOM     10  C9  LG1 d5015      24.327  23.841  71.512  0.00  0.00     0.218 C 
ATOM     11 BR1  LG1 d5015      21.250  26.191  65.933  0.00  0.00    -0.051 Br
ATOM     12  O2  LG1 d5015      25.887  24.426  68.253  0.00  0.00    -0.287 OA
ATOM     13  C10 LG1 d5015      26.760  23.915  70.906  0.00  0.00     0.025 C 
ENDROOT
BRANCH  13  14
ATOM     14  C11 LG1 d5015      27.229  23.523  72.201  0.00  0.00    -0.029 A 
ATOM     15  C14 LG1 d5015      27.589  22.230  72.506  0.00  0.00     0.061 A 
ATOM     16  S1  LG1 d5015      28.109  22.073  74.129  0.00  0.00    -0.113 SA
ATOM     17  C13 LG1 d5015      27.852  23.738  74.430  0.00  0.00     0.050 A 
ATOM     18  C12 LG1 d5015      27.381  24.398  73.317  0.00  0.00     0.019 A 
ENDBRANCH  13  14
TORSDOF 1
ENDMDL
