REMARK INTER + INTRA:          -5.313
REMARK INTER:                  -5.201
REMARK INTRA:                  -0.113
REMARK UNBOUND:                -0.109
REMARK  1 active torsions:
REMARK  status: ('A' for Active; 'I' for Inactive)
REMARK    1  A    between atoms: C10_13  and  C11_14 
ROOT
ATOM      1  C1  LG1 d5015      25.218  24.336  69.993  0.00  0.00     0.018 C 
ATOM      2  C2  LG1 d5015      24.848  24.848  68.650  0.00  0.00     0.193 C 
ATOM      3  C3  LG1 d5015      23.435  25.264  68.521  0.00  0.00     0.049 A 
ATOM      4  C4  LG1 d5015      22.932  25.659  67.279  0.00  0.00     0.037 A 
ATOM      5  C5  LG1 d5015      21.615  26.107  67.178  0.00  0.00     0.012 A 
ATOM      6  C6  LG1 d5015      20.805  26.171  68.313  0.00  0.00     0.022 A 
ATOM      7  C7  LG1 d5015      21.309  25.780  69.554  0.00  0.00     0.039 A 
ATOM      8  C8  LG1 d5015      22.619  25.310  69.657  0.00  0.00     0.083 A 
ATOM      9  O1  LG1 d5015      23.055  24.959  70.907  0.00  0.00    -0.346 OA
ATOM     10  C9  LG1 d5015      24.081  23.961  70.887  0.00  0.00     0.218 C 
ATOM     11 BR1  LG1 d5015      20.917  26.614  65.495  0.00  0.00    -0.051 Br
ATOM     12  O2  LG1 d5015      25.631  24.927  67.715  0.00  0.00    -0.287 OA
ATOM     13  C10 LG1 d5015      26.511  24.233  70.324  0.00  0.00     0.025 C 
ENDROOT
BRANCH  13  14
ATOM     14  C11 LG1 d5015      26.990  23.755  71.586  0.00  0.00    -0.029 A 
ATOM     15  C14 LG1 d5015      27.007  24.532  72.722  0.00  0.00     0.061 A 
ATOM     16  S1  LG1 d5015      27.633  23.685  74.071  0.00  0.00    -0.113 SA
ATOM     17  C13 LG1 d5015      27.886  22.273  73.137  0.00  0.00     0.050 A 
ATOM     18  C12 LG1 d5015      27.499  22.446  71.826  0.00  0.00     0.019 A 
ENDBRANCH  13  14
TORSDOF 1
ENDMDL
