REMARK INTER + INTRA:          -8.284
REMARK INTER:                  -7.787
REMARK INTRA:                  -0.497
REMARK UNBOUND:                -0.370
REMARK  2 active torsions:
REMARK  status: ('A' for Active; 'I' for Inactive)
REMARK    1  A    between atoms: C1_1  and  N1_15 
REMARK    2  A    between atoms: C7_9  and  C4_4 
ROOT
ATOM      1  C1  LG1 d5015      26.215  23.153  71.406  0.00  0.00     0.141 A 
ATOM      2  C2  LG1 d5015      26.943  23.151  70.216  0.00  0.00     0.187 A 
ATOM      3  C3  LG1 d5015      26.276  23.163  68.991  0.00  0.00     0.175 A 
ATOM      4  C4  LG1 d5015      24.882  23.177  68.955  0.00  0.00     0.131 A 
ATOM      5  C5  LG1 d5015      24.154  23.177  70.144  0.00  0.00     0.175 A 
ATOM      6  C6  LG1 d5015      24.820  23.166  71.369  0.00  0.00     0.187 A 
ATOM      7  F1  LG1 d5015      24.107  23.167  72.504  0.00  0.00    -0.200 F 
ATOM      8  F2  LG1 d5015      22.813  23.189  70.119  0.00  0.00    -0.202 F 
ATOM      9  F6  LG1 d5015      26.987  23.163  67.852  0.00  0.00    -0.202 F 
ATOM     10  F7  LG1 d5015      28.283  23.139  70.236  0.00  0.00    -0.200 F 
ENDROOT
BRANCH   1  11
ATOM     11  N1  LG1 d5015      26.874  23.140  72.621  0.00  0.00    -0.232 N 
ATOM     12  N2  LG1 d5015      27.334  21.979  73.119  0.00  0.00    -0.172 NA
ATOM     13  C10 LG1 d5015      27.896  22.346  74.273  0.00  0.00     0.053 A 
ATOM     14  C9  LG1 d5015      27.796  23.730  74.511  0.00  0.00     0.055 A 
ATOM     15  C11 LG1 d5015      28.530  21.332  75.133  0.00  0.00     0.072 C 
ATOM     16  C8  LG1 d5015      27.125  24.218  73.417  0.00  0.00     0.035 A 
ATOM     17  C12 LG1 d5015      26.716  25.595  73.078  0.00  0.00     0.070 C 
ENDBRANCH   1  11
BRANCH   4  18
ATOM     18  C7  LG1 d5015      24.170  23.189  67.643  0.00  0.00     0.423 C 
ATOM     19  F4  LG1 d5015      24.972  23.523  66.590  0.00  0.00    -0.166 F 
ATOM     20  F3  LG1 d5015      23.130  24.072  67.594  0.00  0.00    -0.166 F 
ATOM     21  F5  LG1 d5015      23.635  21.974  67.326  0.00  0.00    -0.166 F 
ENDBRANCH   4  18
TORSDOF 2
ENDMDL
