MODEL 1
REMARK VINA RESULT:    -5.718      0.000      0.000
REMARK INTER + INTRA:          -6.215
REMARK INTER:                  -6.092
REMARK INTRA:                  -0.123
REMARK UNBOUND:                -0.163
REMARK  1 active torsions:
REMARK  status: ('A' for Active; 'I' for Inactive)
REMARK    1  A    between atoms: C10_13  and  C11_14 
ROOT
ATOM      1  C1  LG1 d5015      23.825  25.489  68.527  0.00  0.00     0.018 C 
ATOM      2  C2  LG1 d5015      24.473  25.351  69.855  0.00  0.00     0.193 C 
ATOM      3  C3  LG1 d5015      25.604  24.399  69.889  0.00  0.00     0.049 A 
ATOM      4  C4  LG1 d5015      26.226  24.094  71.101  0.00  0.00     0.037 A 
ATOM      5  C5  LG1 d5015      27.331  23.242  71.115  0.00  0.00     0.012 A 
ATOM      6  C6  LG1 d5015      27.820  22.704  69.924  0.00  0.00     0.022 A 
ATOM      7  C7  LG1 d5015      27.199  23.013  68.712  0.00  0.00     0.039 A 
ATOM      8  C8  LG1 d5015      26.081  23.846  68.694  0.00  0.00     0.083 A 
ATOM      9  O1  LG1 d5015      25.532  24.121  67.470  0.00  0.00    -0.346 OA
ATOM     10  C9  LG1 d5015      24.133  24.417  67.533  0.00  0.00     0.218 C 
ATOM     11 BR1  LG1 d5015      28.160  22.800  72.756  0.00  0.00    -0.051 Br
ATOM     12  O2  LG1 d5015      24.115  25.962  70.851  0.00  0.00    -0.287 OA
ATOM     13  C10 LG1 d5015      23.018  26.532  68.295  0.00  0.00     0.025 C 
ENDROOT
BRANCH  13  14
ATOM     14  C11 LG1 d5015      22.339  26.774  67.057  0.00  0.00    -0.029 A 
ATOM     15  C14 LG1 d5015      22.773  27.699  66.135  0.00  0.00     0.061 A 
ATOM     16  S1  LG1 d5015      21.756  27.759  64.758  0.00  0.00    -0.113 SA
ATOM     17  C13 LG1 d5015      20.731  26.545  65.395  0.00  0.00     0.050 A 
ATOM     18  C12 LG1 d5015      21.156  26.105  66.629  0.00  0.00     0.019 A 
ENDBRANCH  13  14
TORSDOF 1
ENDMDL
MODEL 2
REMARK VINA RESULT:    -5.453      2.374      3.916
REMARK INTER + INTRA:          -5.934
REMARK INTER:                  -5.770
REMARK INTRA:                  -0.164
REMARK UNBOUND:                -0.163
REMARK  1 active torsions:
REMARK  status: ('A' for Active; 'I' for Inactive)
REMARK    1  A    between atoms: C10_13  and  C11_14 
ROOT
ATOM      1  C1  LG1 d5015      26.519  25.260  69.809  0.00  0.00     0.018 C 
ATOM      2  C2  LG1 d5015      27.135  24.018  70.341  0.00  0.00     0.193 C 
ATOM      3  C3  LG1 d5015      27.063  23.880  71.811  0.00  0.00     0.049 A 
ATOM      4  C4  LG1 d5015      27.703  22.814  72.445  0.00  0.00     0.037 A 
ATOM      5  C5  LG1 d5015      27.580  22.657  73.827  0.00  0.00     0.012 A 
ATOM      6  C6  LG1 d5015      26.814  23.555  74.571  0.00  0.00     0.022 A 
ATOM      7  C7  LG1 d5015      26.172  24.619  73.935  0.00  0.00     0.039 A 
ATOM      8  C8  LG1 d5015      26.309  24.793  72.558  0.00  0.00     0.083 A 
ATOM      9  O1  LG1 d5015      25.638  25.847  71.996  0.00  0.00    -0.346 OA
ATOM     10  C9  LG1 d5015      26.262  26.343  70.806  0.00  0.00     0.218 C 
ATOM     11 BR1  LG1 d5015      28.469  21.233  74.697  0.00  0.00    -0.051 Br
ATOM     12  O2  LG1 d5015      27.663  23.169  69.638  0.00  0.00    -0.287 OA
ATOM     13  C10 LG1 d5015      26.239  25.348  68.503  0.00  0.00     0.025 C 
ENDROOT
BRANCH  13  14
ATOM     14  C11 LG1 d5015      25.646  26.490  67.874  0.00  0.00    -0.029 A 
ATOM     15  C14 LG1 d5015      24.287  26.624  67.697  0.00  0.00     0.061 A 
ATOM     16  S1  LG1 d5015      23.883  28.094  66.918  0.00  0.00    -0.113 SA
ATOM     17  C13 LG1 d5015      25.528  28.555  66.815  0.00  0.00     0.050 A 
ATOM     18  C12 LG1 d5015      26.365  27.609  67.364  0.00  0.00     0.019 A 
ENDBRANCH  13  14
TORSDOF 1
ENDMDL
MODEL 3
REMARK VINA RESULT:    -5.141      4.173      6.907
REMARK INTER + INTRA:          -5.605
REMARK INTER:                  -5.516
REMARK INTRA:                  -0.089
REMARK UNBOUND:                -0.163
REMARK  1 active torsions:
REMARK  status: ('A' for Active; 'I' for Inactive)
REMARK    1  A    between atoms: C10_13  and  C11_14 
ROOT
ATOM      1  C1  LG1 d5015      24.941  24.162  70.580  0.00  0.00     0.018 C 
ATOM      2  C2  LG1 d5015      23.908  24.037  69.521  0.00  0.00     0.193 C 
ATOM      3  C3  LG1 d5015      23.744  25.242  68.681  0.00  0.00     0.049 A 
ATOM      4  C4  LG1 d5015      22.730  25.294  67.723  0.00  0.00     0.037 A 
ATOM      5  C5  LG1 d5015      22.620  26.411  66.893  0.00  0.00     0.012 A 
ATOM      6  C6  LG1 d5015      23.525  27.466  67.011  0.00  0.00     0.022 A 
ATOM      7  C7  LG1 d5015      24.541  27.411  67.966  0.00  0.00     0.039 A 
ATOM      8  C8  LG1 d5015      24.642  26.308  68.813  0.00  0.00     0.083 A 
ATOM      9  O1  LG1 d5015      25.672  26.311  69.716  0.00  0.00    -0.346 OA
ATOM     10  C9  LG1 d5015      25.391  25.551  70.896  0.00  0.00     0.218 C 
ATOM     11 BR1  LG1 d5015      21.229  26.502  65.614  0.00  0.00    -0.051 Br
ATOM     12  O2  LG1 d5015      23.237  23.030  69.344  0.00  0.00    -0.287 OA
ATOM     13  C10 LG1 d5015      25.400  23.059  71.184  0.00  0.00     0.025 C 
ENDROOT
BRANCH  13  14
ATOM     14  C11 LG1 d5015      26.393  23.051  72.216  0.00  0.00    -0.029 A 
ATOM     15  C14 LG1 d5015      26.116  23.385  73.523  0.00  0.00     0.061 A 
ATOM     16  S1  LG1 d5015      27.504  23.280  74.519  0.00  0.00    -0.113 SA
ATOM     17  C13 LG1 d5015      28.481  22.787  73.203  0.00  0.00     0.050 A 
ATOM     18  C12 LG1 d5015      27.763  22.704  72.030  0.00  0.00     0.019 A 
ENDBRANCH  13  14
TORSDOF 1
ENDMDL
MODEL 4
REMARK VINA RESULT:    -4.917      1.963      3.116
REMARK INTER + INTRA:          -5.367
REMARK INTER:                  -5.199
REMARK INTRA:                  -0.168
REMARK UNBOUND:                -0.163
REMARK  1 active torsions:
REMARK  status: ('A' for Active; 'I' for Inactive)
REMARK    1  A    between atoms: C10_13  and  C11_14 
ROOT
ATOM      1  C1  LG1 d5015      24.368  24.419  69.953  0.00  0.00     0.018 C 
ATOM      2  C2  LG1 d5015      24.996  23.259  70.633  0.00  0.00     0.193 C 
ATOM      3  C3  LG1 d5015      25.867  23.614  71.772  0.00  0.00     0.049 A 
ATOM      4  C4  LG1 d5015      26.604  22.624  72.426  0.00  0.00     0.037 A 
ATOM      5  C5  LG1 d5015      27.377  22.959  73.538  0.00  0.00     0.012 A 
ATOM      6  C6  LG1 d5015      27.407  24.274  74.004  0.00  0.00     0.022 A 
ATOM      7  C7  LG1 d5015      26.667  25.262  73.353  0.00  0.00     0.039 A 
ATOM      8  C8  LG1 d5015      25.910  24.938  72.227  0.00  0.00     0.083 A 
ATOM      9  O1  LG1 d5015      25.195  25.952  71.647  0.00  0.00    -0.346 OA
ATOM     10  C9  LG1 d5015      24.970  25.755  70.247  0.00  0.00     0.218 C 
ATOM     11 BR1  LG1 d5015      28.403  21.630  74.409  0.00  0.00    -0.051 Br
ATOM     12  O2  LG1 d5015      24.820  22.097  70.293  0.00  0.00    -0.287 OA
ATOM     13  C10 LG1 d5015      23.330  24.218  69.132  0.00  0.00     0.025 C 
ENDROOT
BRANCH  13  14
ATOM     14  C11 LG1 d5015      22.642  25.254  68.423  0.00  0.00    -0.029 A 
ATOM     15  C14 LG1 d5015      21.543  25.907  68.933  0.00  0.00     0.061 A 
ATOM     16  S1  LG1 d5015      20.943  27.094  67.854  0.00  0.00    -0.113 SA
ATOM     17  C13 LG1 d5015      22.155  26.736  66.700  0.00  0.00     0.050 A 
ATOM     18  C12 LG1 d5015      22.998  25.735  67.129  0.00  0.00     0.019 A 
ENDBRANCH  13  14
TORSDOF 1
ENDMDL
MODEL 5
REMARK VINA RESULT:    -4.844      4.984      6.804
REMARK INTER + INTRA:          -5.290
REMARK INTER:                  -5.127
REMARK INTRA:                  -0.163
REMARK UNBOUND:                -0.163
REMARK  1 active torsions:
REMARK  status: ('A' for Active; 'I' for Inactive)
REMARK    1  A    between atoms: C10_13  and  C11_14 
ROOT
ATOM      1  C1  LG1 d5015      26.894  24.609  72.751  0.00  0.00     0.018 C 
ATOM      2  C2  LG1 d5015      27.266  24.959  74.145  0.00  0.00     0.193 C 
ATOM      3  C3  LG1 d5015      26.673  26.220  74.638  0.00  0.00     0.049 A 
ATOM      4  C4  LG1 d5015      27.032  26.719  75.892  0.00  0.00     0.037 A 
ATOM      5  C5  LG1 d5015      26.422  27.877  76.376  0.00  0.00     0.012 A 
ATOM      6  C6  LG1 d5015      25.450  28.530  75.617  0.00  0.00     0.022 A 
ATOM      7  C7  LG1 d5015      25.089  28.028  74.365  0.00  0.00     0.039 A 
ATOM      8  C8  LG1 d5015      25.711  26.884  73.867  0.00  0.00     0.083 A 
ATOM      9  O1  LG1 d5015      25.296  26.436  72.640  0.00  0.00    -0.346 OA
ATOM     10  C9  LG1 d5015      26.309  25.714  71.932  0.00  0.00     0.218 C 
ATOM     11 BR1  LG1 d5015      26.926  28.576  78.060  0.00  0.00    -0.051 Br
ATOM     12  O2  LG1 d5015      28.001  24.276  74.843  0.00  0.00    -0.287 OA
ATOM     13  C10 LG1 d5015      27.100  23.363  72.309  0.00  0.00     0.025 C 
ENDROOT
BRANCH  13  14
ATOM     14  C11 LG1 d5015      26.782  22.906  70.990  0.00  0.00    -0.029 A 
ATOM     15  C14 LG1 d5015      25.544  22.411  70.648  0.00  0.00     0.061 A 
ATOM     16  S1  LG1 d5015      25.471  21.947  69.001  0.00  0.00    -0.113 SA
ATOM     17  C13 LG1 d5015      27.098  22.407  68.742  0.00  0.00     0.050 A 
ATOM     18  C12 LG1 d5015      27.683  22.904  69.885  0.00  0.00     0.019 A 
ENDBRANCH  13  14
TORSDOF 1
ENDMDL
