REMARK INTER + INTRA:          -5.921
REMARK INTER:                  -5.755
REMARK INTRA:                  -0.165
REMARK UNBOUND:                -0.109
REMARK  1 active torsions:
REMARK  status: ('A' for Active; 'I' for Inactive)
REMARK    1  A    between atoms: C10_13  and  C11_14 
ROOT
ATOM      1  C1  LG1 d5015      26.489  25.311  69.808  0.00  0.00     0.018 C 
ATOM      2  C2  LG1 d5015      27.099  24.069  70.345  0.00  0.00     0.193 C 
ATOM      3  C3  LG1 d5015      27.012  23.930  71.814  0.00  0.00     0.049 A 
ATOM      4  C4  LG1 d5015      27.645  22.864  72.456  0.00  0.00     0.037 A 
ATOM      5  C5  LG1 d5015      27.507  22.706  73.835  0.00  0.00     0.012 A 
ATOM      6  C6  LG1 d5015      26.732  23.603  74.572  0.00  0.00     0.022 A 
ATOM      7  C7  LG1 d5015      26.096  24.666  73.929  0.00  0.00     0.039 A 
ATOM      8  C8  LG1 d5015      26.248  24.841  72.554  0.00  0.00     0.083 A 
ATOM      9  O1  LG1 d5015      25.583  25.895  71.985  0.00  0.00    -0.346 OA
ATOM     10  C9  LG1 d5015      26.219  26.392  70.803  0.00  0.00     0.218 C 
ATOM     11 BR1  LG1 d5015      28.388  21.282  74.715  0.00  0.00    -0.051 Br
ATOM     12  O2  LG1 d5015      27.636  23.221  69.648  0.00  0.00    -0.287 OA
ATOM     13  C10 LG1 d5015      26.223  25.399  68.499  0.00  0.00     0.025 C 
ENDROOT
BRANCH  13  14
ATOM     14  C11 LG1 d5015      25.635  26.541  67.865  0.00  0.00    -0.029 A 
ATOM     15  C14 LG1 d5015      24.278  26.681  67.687  0.00  0.00     0.061 A 
ATOM     16  S1  LG1 d5015      23.881  28.149  66.902  0.00  0.00    -0.113 SA
ATOM     17  C13 LG1 d5015      25.528  28.602  66.796  0.00  0.00     0.050 A 
ATOM     18  C12 LG1 d5015      26.360  27.654  67.349  0.00  0.00     0.019 A 
ENDBRANCH  13  14
TORSDOF 1
ENDMDL
