REMARK INTER + INTRA:          -6.610
REMARK INTER:                  -6.406
REMARK INTRA:                  -0.204
REMARK UNBOUND:                -0.207
REMARK  1 active torsions:
REMARK  status: ('A' for Active; 'I' for Inactive)
REMARK    1  A    between atoms: C1_1  and  N1_10 
ROOT
ATOM      1  C1  LG1 d5015      25.934  23.484  70.759  0.00  0.00     0.056 A 
ATOM      2  C2  LG1 d5015      25.370  23.587  72.030  0.00  0.00    -0.033 A 
ATOM      3  C3  LG1 d5015      26.078  23.135  73.145  0.00  0.00     0.028 A 
ATOM      4  C4  LG1 d5015      27.347  22.580  72.988  0.00  0.00     0.012 A 
ATOM      5  C5  LG1 d5015      27.911  22.476  71.715  0.00  0.00     0.028 A 
ATOM      6  C6  LG1 d5015      27.203  22.928  70.602  0.00  0.00    -0.033 A 
ATOM      7  C7  LG1 d5015      27.833  22.803  69.252  0.00  0.00     0.050 C 
ATOM      8 BR1  LG1 d5015      28.304  21.967  74.499  0.00  0.00    -0.051 Br
ATOM      9  C8  LG1 d5015      24.013  24.179  72.230  0.00  0.00     0.050 C 
ENDROOT
BRANCH   1  10
ATOM     10  N1  LG1 d5015      25.208  23.950  69.611  0.00  0.00    -0.265 N 
ATOM     11  C11 LG1 d5015      24.352  23.153  68.851  0.00  0.00     0.148 C 
ATOM     12  S2  LG1 d5015      23.756  21.615  69.144  0.00  0.00    -0.052 SA
ATOM     13  S1  LG1 d5015      23.811  24.057  67.440  0.00  0.00    -0.090 SA
ATOM     14  C10 LG1 d5015      24.490  25.611  68.023  0.00  0.00     0.185 C 
ATOM     15  C9  LG1 d5015      25.363  25.280  69.199  0.00  0.00     0.239 C 
ATOM     16  O1  LG1 d5015      26.115  26.127  69.676  0.00  0.00    -0.272 OA
ENDBRANCH   1  10
TORSDOF 1
ENDMDL
