REMARK INTER + INTRA:          -6.220
REMARK INTER:                  -6.097
REMARK INTRA:                  -0.123
REMARK UNBOUND:                 0.011
REMARK  1 active torsions:
REMARK  status: ('A' for Active; 'I' for Inactive)
REMARK    1  A    between atoms: C10_13  and  C11_14 
ROOT
ATOM      1  C1  LG1 d5015      23.828  25.493  68.522  0.00  0.00     0.018 C 
ATOM      2  C2  LG1 d5015      24.452  25.333  69.859  0.00  0.00     0.193 C 
ATOM      3  C3  LG1 d5015      25.596  24.398  69.894  0.00  0.00     0.049 A 
ATOM      4  C4  LG1 d5015      26.199  24.073  71.111  0.00  0.00     0.037 A 
ATOM      5  C5  LG1 d5015      27.316  23.237  71.127  0.00  0.00     0.012 A 
ATOM      6  C6  LG1 d5015      27.835  22.734  69.935  0.00  0.00     0.022 A 
ATOM      7  C7  LG1 d5015      27.234  23.061  68.718  0.00  0.00     0.039 A 
ATOM      8  C8  LG1 d5015      26.105  23.879  68.697  0.00  0.00     0.083 A 
ATOM      9  O1  LG1 d5015      25.576  24.174  67.468  0.00  0.00    -0.346 OA
ATOM     10  C9  LG1 d5015      24.171  24.448  67.510  0.00  0.00     0.218 C 
ATOM     11 BR1  LG1 d5015      28.118  22.769  72.775  0.00  0.00    -0.051 Br
ATOM     12  O2  LG1 d5015      24.066  25.917  70.862  0.00  0.00    -0.287 OA
ATOM     13  C10 LG1 d5015      23.011  26.530  68.297  0.00  0.00     0.025 C 
ENDROOT
BRANCH  13  14
ATOM     14  C11 LG1 d5015      22.353  26.790  67.052  0.00  0.00    -0.029 A 
ATOM     15  C14 LG1 d5015      22.790  27.744  66.161  0.00  0.00     0.061 A 
ATOM     16  S1  LG1 d5015      21.801  27.821  64.766  0.00  0.00    -0.113 SA
ATOM     17  C13 LG1 d5015      20.783  26.576  65.353  0.00  0.00     0.050 A 
ATOM     18  C12 LG1 d5015      21.190  26.113  66.584  0.00  0.00     0.019 A 
ENDBRANCH  13  14
TORSDOF 1
ENDMDL
