REMARK INTER + INTRA:          -6.601
REMARK INTER:                  -6.395
REMARK INTRA:                  -0.206
REMARK UNBOUND:                -0.023
REMARK  1 active torsions:
REMARK  status: ('A' for Active; 'I' for Inactive)
REMARK    1  A    between atoms: C1_1  and  N1_10 
ROOT
ATOM      1  C1  LG1 d5015      25.950  23.502  70.744  0.00  0.00     0.056 A 
ATOM      2  C2  LG1 d5015      25.398  23.610  72.020  0.00  0.00    -0.033 A 
ATOM      3  C3  LG1 d5015      26.115  23.160  73.130  0.00  0.00     0.028 A 
ATOM      4  C4  LG1 d5015      27.383  22.603  72.963  0.00  0.00     0.012 A 
ATOM      5  C5  LG1 d5015      27.934  22.495  71.685  0.00  0.00     0.028 A 
ATOM      6  C6  LG1 d5015      27.218  22.944  70.577  0.00  0.00    -0.033 A 
ATOM      7  C7  LG1 d5015      27.835  22.815  69.222  0.00  0.00     0.050 C 
ATOM      8 BR1  LG1 d5015      28.352  21.992  74.466  0.00  0.00    -0.051 Br
ATOM      9  C8  LG1 d5015      24.043  24.203  72.231  0.00  0.00     0.050 C 
ENDROOT
BRANCH   1  10
ATOM     10  N1  LG1 d5015      25.214  23.966  69.602  0.00  0.00    -0.265 N 
ATOM     11  C11 LG1 d5015      24.349  23.169  68.852  0.00  0.00     0.148 C 
ATOM     12  S2  LG1 d5015      23.753  21.633  69.157  0.00  0.00    -0.052 SA
ATOM     13  S1  LG1 d5015      23.798  24.069  67.444  0.00  0.00    -0.090 SA
ATOM     14  C10 LG1 d5015      24.485  25.623  68.015  0.00  0.00     0.185 C 
ATOM     15  C9  LG1 d5015      25.369  25.295  69.183  0.00  0.00     0.239 C 
ATOM     16  O1  LG1 d5015      26.126  26.142  69.651  0.00  0.00    -0.272 OA
ENDBRANCH   1  10
TORSDOF 1
ENDMDL
