REMARK INTER + INTRA:          -7.795
REMARK INTER:                  -7.425
REMARK INTRA:                  -0.370
REMARK UNBOUND:                -0.370
REMARK  2 active torsions:
REMARK  status: ('A' for Active; 'I' for Inactive)
REMARK    1  A    between atoms: C1_1  and  N1_15 
REMARK    2  A    between atoms: C7_9  and  C4_4 
ROOT
ATOM      1  C1  LG1 d5015      26.052  23.731  72.228  0.00  0.00     0.141 A 
ATOM      2  C2  LG1 d5015      26.807  23.354  71.118  0.00  0.00     0.187 A 
ATOM      3  C3  LG1 d5015      26.216  22.626  70.086  0.00  0.00     0.175 A 
ATOM      4  C4  LG1 d5015      24.869  22.273  70.164  0.00  0.00     0.131 A 
ATOM      5  C5  LG1 d5015      24.113  22.648  71.275  0.00  0.00     0.175 A 
ATOM      6  C6  LG1 d5015      24.705  23.377  72.306  0.00  0.00     0.187 A 
ATOM      7  F1  LG1 d5015      23.966  23.731  73.367  0.00  0.00    -0.200 F 
ATOM      8  F2  LG1 d5015      22.817  22.312  71.359  0.00  0.00    -0.202 F 
ATOM      9  F6  LG1 d5015      26.952  22.270  69.022  0.00  0.00    -0.202 F 
ATOM     10  F7  LG1 d5015      28.103  23.688  71.029  0.00  0.00    -0.200 F 
ENDROOT
BRANCH   1  11
ATOM     11  N1  LG1 d5015      26.637  24.452  73.252  0.00  0.00    -0.232 N 
ATOM     12  N2  LG1 d5015      26.370  25.763  73.383  0.00  0.00    -0.172 NA
ATOM     13  C10 LG1 d5015      27.093  26.115  74.448  0.00  0.00     0.053 A 
ATOM     14  C9  LG1 d5015      27.818  25.038  74.994  0.00  0.00     0.055 A 
ATOM     15  C11 LG1 d5015      27.065  27.509  74.923  0.00  0.00     0.072 C 
ATOM     16  C8  LG1 d5015      27.499  23.970  74.192  0.00  0.00     0.035 A 
ATOM     17  C12 LG1 d5015      27.939  22.562  74.250  0.00  0.00     0.070 C 
ENDBRANCH   1  11
BRANCH   4  18
ATOM     18  C7  LG1 d5015      24.237  21.493  69.060  0.00  0.00     0.423 C 
ATOM     19  F4  LG1 d5015      23.896  22.253  67.980  0.00  0.00    -0.166 F 
ATOM     20  F3  LG1 d5015      23.085  20.859  69.429  0.00  0.00    -0.166 F 
ATOM     21  F5  LG1 d5015      25.055  20.513  68.576  0.00  0.00    -0.166 F 
ENDBRANCH   4  18
TORSDOF 2
ENDMDL
