REMARK INTER + INTRA:          -8.248
REMARK INTER:                  -7.757
REMARK INTRA:                  -0.491
REMARK UNBOUND:                -0.370
REMARK  2 active torsions:
REMARK  status: ('A' for Active; 'I' for Inactive)
REMARK    1  A    between atoms: C1_1  and  N1_15 
REMARK    2  A    between atoms: C7_9  and  C4_4 
ROOT
ATOM      1  C1  LG1 d5015      26.224  23.169  71.431  0.00  0.00     0.141 A 
ATOM      2  C2  LG1 d5015      24.830  23.201  71.382  0.00  0.00     0.187 A 
ATOM      3  C3  LG1 d5015      24.176  23.220  70.150  0.00  0.00     0.175 A 
ATOM      4  C4  LG1 d5015      24.916  23.207  68.967  0.00  0.00     0.131 A 
ATOM      5  C5  LG1 d5015      26.309  23.177  69.017  0.00  0.00     0.175 A 
ATOM      6  C6  LG1 d5015      26.962  23.157  70.248  0.00  0.00     0.187 A 
ATOM      7  F1  LG1 d5015      28.303  23.128  70.280  0.00  0.00    -0.200 F 
ATOM      8  F2  LG1 d5015      27.028  23.165  67.884  0.00  0.00    -0.202 F 
ATOM      9  F6  LG1 d5015      22.835  23.249  70.114  0.00  0.00    -0.202 F 
ATOM     10  F7  LG1 d5015      24.107  23.213  72.511  0.00  0.00    -0.200 F 
ENDROOT
BRANCH   1  11
ATOM     11  N1  LG1 d5015      26.873  23.151  72.652  0.00  0.00    -0.232 N 
ATOM     12  N2  LG1 d5015      27.308  21.985  73.160  0.00  0.00    -0.172 NA
ATOM     13  C10 LG1 d5015      27.867  22.349  74.317  0.00  0.00     0.053 A 
ATOM     14  C9  LG1 d5015      27.789  23.736  74.547  0.00  0.00     0.055 A 
ATOM     15  C11 LG1 d5015      28.475  21.328  75.188  0.00  0.00     0.072 C 
ATOM     16  C8  LG1 d5015      27.136  24.230  73.444  0.00  0.00     0.035 A 
ATOM     17  C12 LG1 d5015      26.756  25.612  73.095  0.00  0.00     0.070 C 
ENDBRANCH   1  11
BRANCH   4  18
ATOM     18  C7  LG1 d5015      24.216  23.228  67.650  0.00  0.00     0.423 C 
ATOM     19  F4  LG1 d5015      25.025  23.573  66.606  0.00  0.00    -0.166 F 
ATOM     20  F3  LG1 d5015      23.174  24.110  67.599  0.00  0.00    -0.166 F 
ATOM     21  F5  LG1 d5015      23.685  22.015  67.318  0.00  0.00    -0.166 F 
ENDBRANCH   4  18
TORSDOF 2
ENDMDL
