REMARK INTER + INTRA:          -6.249
REMARK INTER:                  -6.126
REMARK INTRA:                  -0.123
REMARK UNBOUND:                -0.109
REMARK  1 active torsions:
REMARK  status: ('A' for Active; 'I' for Inactive)
REMARK    1  A    between atoms: C10_13  and  C11_14 
ROOT
ATOM      1  C1  LG1 d5015      23.787  25.427  68.473  0.00  0.00     0.018 C 
ATOM      2  C2  LG1 d5015      24.401  25.267  69.815  0.00  0.00     0.193 C 
ATOM      3  C3  LG1 d5015      25.552  24.340  69.855  0.00  0.00     0.049 A 
ATOM      4  C4  LG1 d5015      26.147  24.015  71.076  0.00  0.00     0.037 A 
ATOM      5  C5  LG1 d5015      27.270  23.188  71.098  0.00  0.00     0.012 A 
ATOM      6  C6  LG1 d5015      27.804  22.694  69.908  0.00  0.00     0.022 A 
ATOM      7  C7  LG1 d5015      27.211  23.022  68.688  0.00  0.00     0.039 A 
ATOM      8  C8  LG1 d5015      26.075  23.831  68.660  0.00  0.00     0.083 A 
ATOM      9  O1  LG1 d5015      25.554  24.127  67.429  0.00  0.00    -0.346 OA
ATOM     10  C9  LG1 d5015      24.147  24.390  67.460  0.00  0.00     0.218 C 
ATOM     11 BR1  LG1 d5015      28.063  22.719  72.751  0.00  0.00    -0.051 Br
ATOM     12  O2  LG1 d5015      24.001  25.843  70.817  0.00  0.00    -0.287 OA
ATOM     13  C10 LG1 d5015      22.964  26.458  68.246  0.00  0.00     0.025 C 
ENDROOT
BRANCH  13  14
ATOM     14  C11 LG1 d5015      22.314  26.719  66.997  0.00  0.00    -0.029 A 
ATOM     15  C14 LG1 d5015      22.749  27.681  66.115  0.00  0.00     0.061 A 
ATOM     16  S1  LG1 d5015      21.772  27.755  64.711  0.00  0.00    -0.113 SA
ATOM     17  C13 LG1 d5015      20.761  26.498  65.281  0.00  0.00     0.050 A 
ATOM     18  C12 LG1 d5015      21.162  26.032  66.514  0.00  0.00     0.019 A 
ENDBRANCH  13  14
TORSDOF 1
ENDMDL
