REMARK INTER + INTRA:          -5.605
REMARK INTER:                  -5.516
REMARK INTRA:                  -0.089
REMARK UNBOUND:                -0.163
REMARK  1 active torsions:
REMARK  status: ('A' for Active; 'I' for Inactive)
REMARK    1  A    between atoms: C10_13  and  C11_14 
ROOT
ATOM      1  C1  LG1 d5015      24.941  24.162  70.580  0.00  0.00     0.018 C 
ATOM      2  C2  LG1 d5015      23.908  24.037  69.521  0.00  0.00     0.193 C 
ATOM      3  C3  LG1 d5015      23.744  25.242  68.681  0.00  0.00     0.049 A 
ATOM      4  C4  LG1 d5015      22.730  25.294  67.723  0.00  0.00     0.037 A 
ATOM      5  C5  LG1 d5015      22.620  26.411  66.893  0.00  0.00     0.012 A 
ATOM      6  C6  LG1 d5015      23.525  27.466  67.011  0.00  0.00     0.022 A 
ATOM      7  C7  LG1 d5015      24.541  27.411  67.966  0.00  0.00     0.039 A 
ATOM      8  C8  LG1 d5015      24.642  26.308  68.813  0.00  0.00     0.083 A 
ATOM      9  O1  LG1 d5015      25.672  26.311  69.716  0.00  0.00    -0.346 OA
ATOM     10  C9  LG1 d5015      25.391  25.551  70.896  0.00  0.00     0.218 C 
ATOM     11 BR1  LG1 d5015      21.229  26.502  65.614  0.00  0.00    -0.051 Br
ATOM     12  O2  LG1 d5015      23.237  23.030  69.344  0.00  0.00    -0.287 OA
ATOM     13  C10 LG1 d5015      25.400  23.059  71.184  0.00  0.00     0.025 C 
ENDROOT
BRANCH  13  14
ATOM     14  C11 LG1 d5015      26.393  23.051  72.216  0.00  0.00    -0.029 A 
ATOM     15  C14 LG1 d5015      26.116  23.385  73.523  0.00  0.00     0.061 A 
ATOM     16  S1  LG1 d5015      27.504  23.280  74.519  0.00  0.00    -0.113 SA
ATOM     17  C13 LG1 d5015      28.481  22.787  73.203  0.00  0.00     0.050 A 
ATOM     18  C12 LG1 d5015      27.763  22.704  72.030  0.00  0.00     0.019 A 
ENDBRANCH  13  14
TORSDOF 1
ENDMDL
