REMARK INTER + INTRA:          -8.074
REMARK INTER:                  -7.607
REMARK INTRA:                  -0.467
REMARK UNBOUND:                -0.370
REMARK  2 active torsions:
REMARK  status: ('A' for Active; 'I' for Inactive)
REMARK    1  A    between atoms: C1_1  and  N1_15 
REMARK    2  A    between atoms: C7_9  and  C4_4 
ROOT
ATOM      1  C1  LG1 d5015      25.579  23.522  70.623  0.00  0.00     0.141 A 
ATOM      2  C2  LG1 d5015      26.905  23.100  70.518  0.00  0.00     0.187 A 
ATOM      3  C3  LG1 d5015      27.642  22.824  71.669  0.00  0.00     0.175 A 
ATOM      4  C4  LG1 d5015      27.055  22.971  72.926  0.00  0.00     0.131 A 
ATOM      5  C5  LG1 d5015      25.730  23.393  73.031  0.00  0.00     0.175 A 
ATOM      6  C6  LG1 d5015      24.993  23.668  71.880  0.00  0.00     0.187 A 
ATOM      7  F1  LG1 d5015      23.720  24.073  71.997  0.00  0.00    -0.200 F 
ATOM      8  F2  LG1 d5015      25.157  23.537  74.236  0.00  0.00    -0.202 F 
ATOM      9  F6  LG1 d5015      28.916  22.419  71.556  0.00  0.00    -0.202 F 
ATOM     10  F7  LG1 d5015      27.482  22.955  69.316  0.00  0.00    -0.200 F 
ENDROOT
BRANCH   1  11
ATOM     11  N1  LG1 d5015      24.847  23.796  69.482  0.00  0.00    -0.232 N 
ATOM     12  N2  LG1 d5015      24.644  25.072  69.110  0.00  0.00    -0.172 NA
ATOM     13  C10 LG1 d5015      23.916  24.950  67.998  0.00  0.00     0.053 A 
ATOM     14  C9  LG1 d5015      23.656  23.608  67.661  0.00  0.00     0.055 A 
ATOM     15  C11 LG1 d5015      23.483  26.156  67.271  0.00  0.00     0.072 C 
ATOM     16  C8  LG1 d5015      24.276  22.881  68.648  0.00  0.00     0.035 A 
ATOM     17  C12 LG1 d5015      24.366  21.422  68.852  0.00  0.00     0.070 C 
ENDBRANCH   1  11
BRANCH   4  18
ATOM     18  C7  LG1 d5015      27.845  22.676  74.157  0.00  0.00     0.423 C 
ATOM     19  F4  LG1 d5015      28.303  21.392  74.218  0.00  0.00    -0.166 F 
ATOM     20  F3  LG1 d5015      27.144  22.861  75.314  0.00  0.00    -0.166 F 
ATOM     21  F5  LG1 d5015      28.952  23.466  74.271  0.00  0.00    -0.166 F 
ENDBRANCH   4  18
TORSDOF 2
ENDMDL
