REMARK INTER + INTRA:          -5.937
REMARK INTER:                  -5.770
REMARK INTRA:                  -0.167
REMARK UNBOUND:                -0.148
REMARK  1 active torsions:
REMARK  status: ('A' for Active; 'I' for Inactive)
REMARK    1  A    between atoms: C10_13  and  C11_14 
ROOT
ATOM      1  C1  LG1 d5015      26.540  25.302  69.813  0.00  0.00     0.018 C 
ATOM      2  C2  LG1 d5015      27.122  24.045  70.347  0.00  0.00     0.193 C 
ATOM      3  C3  LG1 d5015      27.046  23.912  71.817  0.00  0.00     0.049 A 
ATOM      4  C4  LG1 d5015      27.657  22.830  72.455  0.00  0.00     0.037 A 
ATOM      5  C5  LG1 d5015      27.529  22.679  73.836  0.00  0.00     0.012 A 
ATOM      6  C6  LG1 d5015      26.786  23.598  74.578  0.00  0.00     0.022 A 
ATOM      7  C7  LG1 d5015      26.173  24.677  73.940  0.00  0.00     0.039 A 
ATOM      8  C8  LG1 d5015      26.315  24.845  72.562  0.00  0.00     0.083 A 
ATOM      9  O1  LG1 d5015      25.673  25.915  71.998  0.00  0.00    -0.346 OA
ATOM     10  C9  LG1 d5015      26.310  26.392  70.808  0.00  0.00     0.218 C 
ATOM     11 BR1  LG1 d5015      28.381  21.233  74.710  0.00  0.00    -0.051 Br
ATOM     12  O2  LG1 d5015      27.629  23.181  69.646  0.00  0.00    -0.287 OA
ATOM     13  C10 LG1 d5015      26.263  25.394  68.507  0.00  0.00     0.025 C 
ENDROOT
BRANCH  13  14
ATOM     14  C11 LG1 d5015      25.700  26.550  67.876  0.00  0.00    -0.029 A 
ATOM     15  C14 LG1 d5015      24.344  26.749  67.753  0.00  0.00     0.061 A 
ATOM     16  S1  LG1 d5015      23.979  28.219  66.956  0.00  0.00    -0.113 SA
ATOM     17  C13 LG1 d5015      25.638  28.595  66.772  0.00  0.00     0.050 A 
ATOM     18  C12 LG1 d5015      26.450  27.620  67.308  0.00  0.00     0.019 A 
ENDBRANCH  13  14
TORSDOF 1
ENDMDL
