REMARK INTER + INTRA:          -5.608
REMARK INTER:                  -5.558
REMARK INTRA:                  -0.049
REMARK UNBOUND:                -0.148
REMARK  1 active torsions:
REMARK  status: ('A' for Active; 'I' for Inactive)
REMARK    1  A    between atoms: C10_13  and  C11_14 
ROOT
ATOM      1  C1  LG1 d5015      24.972  24.167  70.660  0.00  0.00     0.018 C 
ATOM      2  C2  LG1 d5015      23.933  24.024  69.610  0.00  0.00     0.193 C 
ATOM      3  C3  LG1 d5015      23.759  25.218  68.755  0.00  0.00     0.049 A 
ATOM      4  C4  LG1 d5015      22.738  25.255  67.803  0.00  0.00     0.037 A 
ATOM      5  C5  LG1 d5015      22.619  26.360  66.959  0.00  0.00     0.012 A 
ATOM      6  C6  LG1 d5015      23.520  27.420  67.058  0.00  0.00     0.022 A 
ATOM      7  C7  LG1 d5015      24.543  27.381  68.007  0.00  0.00     0.039 A 
ATOM      8  C8  LG1 d5015      24.654  26.289  68.867  0.00  0.00     0.083 A 
ATOM      9  O1  LG1 d5015      25.690  26.308  69.763  0.00  0.00    -0.346 OA
ATOM     10  C9  LG1 d5015      25.419  25.562  70.955  0.00  0.00     0.218 C 
ATOM     11 BR1  LG1 d5015      21.219  26.430  65.688  0.00  0.00    -0.051 Br
ATOM     12  O2  LG1 d5015      23.264  23.014  69.449  0.00  0.00    -0.287 OA
ATOM     13  C10 LG1 d5015      25.438  23.073  71.275  0.00  0.00     0.025 C 
ENDROOT
BRANCH  13  14
ATOM     14  C11 LG1 d5015      26.438  23.082  72.300  0.00  0.00    -0.029 A 
ATOM     15  C14 LG1 d5015      26.189  23.512  73.583  0.00  0.00     0.061 A 
ATOM     16  S1  LG1 d5015      27.578  23.403  74.579  0.00  0.00    -0.113 SA
ATOM     17  C13 LG1 d5015      28.518  22.778  73.293  0.00  0.00     0.050 A 
ATOM     18  C12 LG1 d5015      27.788  22.656  72.132  0.00  0.00     0.019 A 
ENDBRANCH  13  14
TORSDOF 1
ENDMDL
