REMARK INTER + INTRA:          -6.220
REMARK INTER:                  -6.097
REMARK INTRA:                  -0.123
REMARK UNBOUND:                -0.158
REMARK  1 active torsions:
REMARK  status: ('A' for Active; 'I' for Inactive)
REMARK    1  A    between atoms: C10_13  and  C11_14 
ROOT
ATOM      1  C1  LG1 d5015      23.817  25.494  68.529  0.00  0.00     0.018 C 
ATOM      2  C2  LG1 d5015      24.447  25.346  69.864  0.00  0.00     0.193 C 
ATOM      3  C3  LG1 d5015      25.587  24.406  69.902  0.00  0.00     0.049 A 
ATOM      4  C4  LG1 d5015      26.195  24.091  71.120  0.00  0.00     0.037 A 
ATOM      5  C5  LG1 d5015      27.308  23.251  71.139  0.00  0.00     0.012 A 
ATOM      6  C6  LG1 d5015      27.820  22.733  69.949  0.00  0.00     0.022 A 
ATOM      7  C7  LG1 d5015      27.214  23.051  68.732  0.00  0.00     0.039 A 
ATOM      8  C8  LG1 d5015      26.088  23.873  68.708  0.00  0.00     0.083 A 
ATOM      9  O1  LG1 d5015      25.554  24.158  67.480  0.00  0.00    -0.346 OA
ATOM     10  C9  LG1 d5015      24.150  24.438  67.526  0.00  0.00     0.218 C 
ATOM     11 BR1  LG1 d5015      28.118  22.796  72.787  0.00  0.00    -0.051 Br
ATOM     12  O2  LG1 d5015      24.068  25.941  70.863  0.00  0.00    -0.287 OA
ATOM     13  C10 LG1 d5015      23.003  26.532  68.298  0.00  0.00     0.025 C 
ENDROOT
BRANCH  13  14
ATOM     14  C11 LG1 d5015      22.339  26.782  67.054  0.00  0.00    -0.029 A 
ATOM     15  C14 LG1 d5015      22.775  27.726  66.151  0.00  0.00     0.061 A 
ATOM     16  S1  LG1 d5015      21.779  27.792  64.760  0.00  0.00    -0.113 SA
ATOM     17  C13 LG1 d5015      20.761  26.557  65.363  0.00  0.00     0.050 A 
ATOM     18  C12 LG1 d5015      21.172  26.104  66.597  0.00  0.00     0.019 A 
ENDBRANCH  13  14
TORSDOF 1
ENDMDL
