@<TRIPOS>MOLECULE
/home/danieldh/ScipionUserData/projects/dcoid_1a28/Runs/000072_ProtChemImportSmallMolecules/extra/decoys_1_1a28.pdb
 28 29 0 0 0
SMALL
GASTEIGER

@<TRIPOS>ATOM
      1  C1        22.9840    9.4140   60.7640 C.ar  501  LG1501      0.1415
      2  C2        23.1410    8.6140   59.6320 C.ar  501  LG1501      0.1872
      3  C3        23.4280    9.1990   58.3990 C.ar  501  LG1501      0.1751
      4  C4        23.5570   10.5840   58.2970 C.ar  501  LG1501      0.1307
      5  C5        23.3990   11.3840   59.4280 C.ar  501  LG1501      0.1751
      6  C6        23.1130   10.7990   60.6610 C.ar  501  LG1501      0.1872
      7  F1        22.9640   11.5810   61.7400 F     501  LG1501     -0.2001
      8  F2        23.5210   12.7170   59.3390 F     501  LG1501     -0.2017
      9  C7        23.8630   11.2090   56.9770 C.3   501  LG1501      0.4229
     10  F3        25.1540   11.0250   56.5710 F     501  LG1501     -0.1657
     11  F4        23.0960   10.7300   55.9540 F     501  LG1501     -0.1657
     12  F5        23.6690   12.5600   56.9790 F     501  LG1501     -0.1657
     13  F6        23.5780    8.4200   57.3170 F     501  LG1501     -0.2017
     14  F7        23.0200    7.2810   59.7160 F     501  LG1501     -0.2001
     15  N1        22.6990    8.8350   61.9870 N.ar  501  LG1501     -0.2310
     16  C8        21.8190    9.3020   62.9170 C.ar  501  LG1501      0.0423
     17  C9        21.8650    8.4090   63.9600 C.ar  501  LG1501     -0.0179
     18  C10       22.8050    7.4430   63.5540 C.ar  501  LG1501      0.0606
     19  C11       23.2440    6.2510   64.2990 C.3   501  LG1501     -0.0206
     20  N2        23.3180    7.6980   62.3480 N.ar  501  LG1501     -0.1713
     21  C12       21.0240   10.5340   62.7440 C.3   501  LG1501     -0.0222
     22  H1        21.3000    8.4530   64.8800 H     501  LG1501      0.0654
     23  H2        22.6110    5.3770   64.0670 H     501  LG1501      0.0293
     24  H3        24.2870    5.9760   64.0680 H     501  LG1501      0.0293
     25  H4        23.2080    6.4060   65.3920 H     501  LG1501      0.0293
     26  H5        21.5630   11.4130   63.1330 H     501  LG1501      0.0293
     27  H6        20.7870   10.7280   61.6840 H     501  LG1501      0.0293
     28  H7        20.0530   10.4770   63.2670 H     501  LG1501      0.0293
@<TRIPOS>BOND
     1    11     9    1
     2    10     9    1
     3     9    12    1
     4     9     4    1
     5    13     3    1
     6     4     3   ar
     7     4     5   ar
     8     3     2   ar
     9     8     5    1
    10     5     6   ar
    11     2    14    1
    12     2     1   ar
    13     6     1   ar
    14     6     7    1
    15     1    15    1
    16    27    21    1
    17    15    20   ar
    18    15    16   ar
    19    20    18   ar
    20    21    16    1
    21    21    26    1
    22    21    28    1
    23    16    17   ar
    24    18    17   ar
    25    18    19    1
    26    17    22    1
    27    23    19    1
    28    24    19    1
    29    19    25    1
