@<TRIPOS>MOLECULE
/home/danieldh/ScipionUserData/projects/dcoid_1a28/Runs/000072_ProtChemImportSmallMolecules/extra/decoys_2_1a28.pdb
 27 29 0 0 0
SMALL
GASTEIGER

@<TRIPOS>ATOM
      1  C1        22.5910    9.5540   60.6540 C.2   501  LG1501      0.0375
      2  C2        22.1910   10.6780   59.7710 C.2   501  LG1501      0.1960
      3  C3        22.4330   10.4420   58.3320 C.ar  501  LG1501      0.0647
      4  C4        22.2050   11.4630   57.4070 C.ar  501  LG1501     -0.0334
      5  C5        22.3780   11.2130   56.0450 C.ar  501  LG1501      0.0188
      6  C6        22.7670    9.9470   55.6060 C.ar  501  LG1501     -0.0443
      7  C7        22.9910    8.9260   56.5310 C.ar  501  LG1501     -0.0182
      8  C8        22.8410    9.1760   57.8950 C.ar  501  LG1501      0.1318
      9  O1        23.0600    8.1250   58.7460 O.3   501  LG1501     -0.4865
     10  C9        23.4980    8.5340   60.0460 C.3   501  LG1501      0.1182
     11 BR1        22.1010   12.6000   54.7890 Br    501  LG1501     -0.0503
     12  O2        21.7020   11.7210   60.1800 O.2   501  LG1501     -0.2867
     13  C10       22.1380    9.5140   61.9130 C.2   501  LG1501     -0.0440
     14  C11       22.4520    8.4840   62.8570 C.ar  501  LG1501     -0.0175
     15  C12       21.6820    8.1720   64.0150 C.ar  501  LG1501     -0.0476
     16  C13       22.2290    7.1340   64.7360 C.ar  501  LG1501     -0.0238
     17  S1        23.6650    6.5410   64.0180 S.2   501  LG1501     -0.1045
     18  C14       23.5580    7.6730   62.7380 C.ar  501  LG1501     -0.0172
     19  H1        21.9010   12.4510   57.7420 H     501  LG1501      0.0637
     20  H2        22.9010    9.7390   54.5480 H     501  LG1501      0.0630
     21  H3        23.2750    7.9380   56.1790 H     501  LG1501      0.0655
     22  H4        24.5130    8.9300   59.9300 H     501  LG1501      0.0749
     23  H5        23.5710    7.6490   60.6920 H     501  LG1501      0.0749
     24  H6        21.4620   10.3070   62.2270 H     501  LG1501      0.0629
     25  H7        20.7720    8.6790   64.3120 H     501  LG1501      0.0629
     26  H8        21.8540    6.6970   65.6510 H     501  LG1501      0.0693
     27  H9        24.3150    7.6840   61.9650 H     501  LG1501      0.0699
@<TRIPOS>BOND
     1    20     6    1
     2    11     5    1
     3     6     5   ar
     4     6     7   ar
     5     5     4   ar
     6    21     7    1
     7     7     8   ar
     8     4    19    1
     9     4     3   ar
    10     8     3   ar
    11     8     9    1
    12     3     2    1
    13     9    10    1
    14     2    12    2
    15     2     1    1
    16    22    10    1
    17    10     1    1
    18    10    23    1
    19     1    13    2
    20    13    24    1
    21    13    14    1
    22    27    18    1
    23    18    14   ar
    24    18    17   ar
    25    14    15   ar
    26    15    25    1
    27    15    16   ar
    28    17    16   ar
    29    16    26    1
