@<TRIPOS>MOLECULE
/home/danieldh/ScipionUserData/projects/dcoid_1a28/Runs/000072_ProtChemImportSmallMolecules/extra/decoys_3_1a28.pdb
 26 27 0 0 0
SMALL
GASTEIGER

@<TRIPOS>ATOM
      1  C1        23.1640   10.4620   59.1550 C.ar  501  LG1501      0.0481
      2  C2        21.9870   11.1680   58.9080 C.ar  501  LG1501     -0.0274
      3  C3        21.7500   11.7070   57.6430 C.ar  501  LG1501     -0.0431
      4  C4        22.6890   11.5400   56.6260 C.ar  501  LG1501      0.0185
      5  C5        23.8680   10.8340   56.8740 C.ar  501  LG1501     -0.0431
      6  C6        24.1040   10.2960   58.1380 C.ar  501  LG1501     -0.0274
      7  C7        25.3750    9.5450   58.3730 C.3   501  LG1501     -0.0379
      8 BR1        22.3680   12.2720   54.9130 Br    501  LG1501     -0.0503
      9  C8        20.9610   11.3620   59.9770 C.3   501  LG1501     -0.0379
     10  N1        23.4080    9.9060   60.4560 N.am  501  LG1501     -0.2271
     11  C9        24.2050   10.6170   61.3640 C.2   501  LG1501      0.2352
     12  C10       24.4010    9.8650   62.6490 C.3   501  LG1501      0.0773
     13  S1        23.2750    8.4710   62.6000 S.3   501  LG1501     -0.0926
     14  C11       22.8850    8.6910   60.8980 C.2   501  LG1501      0.1203
     15  S2        22.0870    7.4830   60.0540 S.2   501  LG1501     -0.0272
     16  O1        24.7020   11.7300   61.2090 O.2   501  LG1501     -0.2740
     17  H1        20.8300   12.2560   57.4560 H     501  LG1501      0.0632
     18  H2        24.6040   10.7030   56.0850 H     501  LG1501      0.0632
     19  H3        26.1600   10.2290   58.7190 H     501  LG1501      0.0278
     20  H4        25.2380    8.7610   59.1270 H     501  LG1501      0.0278
     21  H5        25.7190    9.0530   57.4560 H     501  LG1501      0.0278
     22  H6        20.2380   10.5390   59.9630 H     501  LG1501      0.0278
     23  H7        21.4270   11.4030   60.9690 H     501  LG1501      0.0278
     24  H8        20.4200   12.3070   59.8380 H     501  LG1501      0.0278
     25  H9        25.4350    9.5170   62.7110 H     501  LG1501      0.0475
     26  H10       24.1690   10.5130   63.4980 H     501  LG1501      0.0475
@<TRIPOS>BOND
     1     8     4    1
     2    18     5    1
     3     4     5   ar
     4     4     3   ar
     5     5     6   ar
     6    17     3    1
     7    21     7    1
     8     3     2   ar
     9     6     7    1
    10     6     1   ar
    11     7    19    1
    12     7    20    1
    13     2     1   ar
    14     2     9    1
    15     1    10    1
    16    24     9    1
    17    22     9    1
    18     9    23    1
    19    15    14    2
    20    10    14    1
    21    10    11   am
    22    14    13    1
    23    16    11    2
    24    11    12    1
    25    13    12    1
    26    12    25    1
    27    12    26    1
