REMARK INTER + INTRA:          -6.021
REMARK INTER:                  -5.816
REMARK INTRA:                  -0.205
REMARK UNBOUND:                -0.205
REMARK  1 active torsions:
REMARK  status: ('A' for Active; 'I' for Inactive)
REMARK    1  A    between atoms: C7_7  and  C4_4 
ROOT
ATOM      1  C1  LG1 d5015      37.634  29.749  56.699  0.00  0.00    -0.004 C 
ATOM      2  C2  LG1 d5015      36.718  30.794  57.344  0.00  0.00    -0.001 C 
ATOM      3  C3  LG1 d5015      36.346  31.971  56.367  0.00  0.00    -0.030 C 
ATOM      4  C4  LG1 d5015      35.374  32.758  57.308  0.00  0.00     0.063 C 
ATOM      5  C5  LG1 d5015      34.554  31.651  58.061  0.00  0.00     0.013 C 
ATOM      6  C6  LG1 d5015      35.355  30.309  57.893  0.00  0.00     0.006 C 
ATOM      7  C9  LG1 d5015      35.573  31.497  55.086  0.00  0.00     0.016 C 
ATOM      8  C10 LG1 d5015      37.677  32.679  56.030  0.00  0.00     0.011 C 
ATOM      9  C11 LG1 d5015      38.690  31.693  55.384  0.00  0.00     0.007 C 
ATOM     10  C12 LG1 d5015      38.965  30.461  56.286  0.00  0.00     0.002 C 
ATOM     11  C13 LG1 d5015      40.003  29.482  55.624  0.00  0.00    -0.016 C 
ATOM     12  C14 LG1 d5015      40.218  28.246  56.590  0.00  0.00    -0.068 C 
ATOM     13  C15 LG1 d5015      41.405  27.768  56.917  0.00  0.00     0.053 C 
ATOM     14  C16 LG1 d5015      42.625  28.272  56.306  0.00  0.00     0.149 C 
ATOM     15  C17 LG1 d5015      42.549  29.310  55.190  0.00  0.00     0.084 C 
ATOM     16  C18 LG1 d5015      41.341  30.247  55.437  0.00  0.00     0.022 C 
ATOM     17  O2  LG1 d5015      43.732  27.811  56.635  0.00  0.00    -0.293 OA
ATOM     18  C19 LG1 d5015      38.978  27.600  57.197  0.00  0.00     0.035 C 
ATOM     19  C20 LG1 d5015      37.974  28.642  57.728  0.00  0.00     0.010 C 
ATOM     20  C21 LG1 d5015      39.491  28.891  54.255  0.00  0.00     0.020 C 
ENDROOT
BRANCH   4  21
ATOM     21  C7  LG1 d5015      34.526  33.834  56.610  0.00  0.00     0.128 C 
ATOM     22  O1  LG1 d5015      35.058  34.813  56.130  0.00  0.00    -0.298 OA
ATOM     23  C8  LG1 d5015      33.050  33.662  56.520  0.00  0.00     0.091 C 
ENDBRANCH   4  21
TORSDOF 1
ENDMDL
