MODEL 1
REMARK VINA RESULT:    -6.753      0.000      0.000
REMARK INTER + INTRA:          -7.353
REMARK INTER:                  -7.162
REMARK INTRA:                  -0.191
REMARK UNBOUND:                -0.205
REMARK  1 active torsions:
REMARK  status: ('A' for Active; 'I' for Inactive)
REMARK    1  A    between atoms: C7_7  and  C4_4 
ROOT
ATOM      1  C1  LG1 d5015      38.049  31.163  55.769  0.00  0.00    -0.004 C 
ATOM      2  C2  LG1 d5015      38.872  30.493  54.664  0.00  0.00    -0.001 C 
ATOM      3  C3  LG1 d5015      40.403  30.856  54.732  0.00  0.00    -0.030 C 
ATOM      4  C4  LG1 d5015      40.908  29.958  53.554  0.00  0.00     0.063 C 
ATOM      5  C5  LG1 d5015      40.086  28.627  53.676  0.00  0.00     0.013 C 
ATOM      6  C6  LG1 d5015      38.849  28.947  54.592  0.00  0.00     0.006 C 
ATOM      7  C9  LG1 d5015      41.090  30.408  56.071  0.00  0.00     0.016 C 
ATOM      8  C10 LG1 d5015      40.487  32.381  54.502  0.00  0.00     0.011 C 
ATOM      9  C11 LG1 d5015      39.663  33.156  55.567  0.00  0.00     0.007 C 
ATOM     10  C12 LG1 d5015      38.177  32.712  55.596  0.00  0.00     0.002 C 
ATOM     11  C13 LG1 d5015      37.355  33.518  56.669  0.00  0.00    -0.016 C 
ATOM     12  C14 LG1 d5015      35.859  32.999  56.652  0.00  0.00    -0.068 C 
ATOM     13  C15 LG1 d5015      34.807  33.796  56.630  0.00  0.00     0.053 C 
ATOM     14  C16 LG1 d5015      34.940  35.240  56.746  0.00  0.00     0.149 C 
ATOM     15  C17 LG1 d5015      36.310  35.864  56.996  0.00  0.00     0.084 C 
ATOM     16  C18 LG1 d5015      37.398  35.021  56.285  0.00  0.00     0.022 C 
ATOM     17  O2  LG1 d5015      33.934  35.970  56.716  0.00  0.00    -0.293 OA
ATOM     18  C19 LG1 d5015      35.634  31.491  56.627  0.00  0.00     0.035 C 
ATOM     19  C20 LG1 d5015      36.555  30.778  55.618  0.00  0.00     0.010 C 
ATOM     20  C21 LG1 d5015      37.887  33.291  58.136  0.00  0.00     0.020 C 
ENDROOT
BRANCH   4  21
ATOM     21  C7  LG1 d5015      42.434  29.778  53.487  0.00  0.00     0.128 C 
ATOM     22  O1  LG1 d5015      43.142  30.698  53.140  0.00  0.00    -0.298 OA
ATOM     23  C8  LG1 d5015      43.035  28.468  53.860  0.00  0.00     0.091 C 
ENDBRANCH   4  21
TORSDOF 1
ENDMDL
MODEL 2
REMARK VINA RESULT:    -6.165      1.251      7.294
REMARK INTER + INTRA:          -6.730
REMARK INTER:                  -6.525
REMARK INTRA:                  -0.205
REMARK UNBOUND:                -0.205
REMARK  1 active torsions:
REMARK  status: ('A' for Active; 'I' for Inactive)
REMARK    1  A    between atoms: C7_7  and  C4_4 
ROOT
ATOM      1  C1  LG1 d5015      38.119  33.049  56.166  0.00  0.00    -0.004 C 
ATOM      2  C2  LG1 d5015      36.952  34.011  55.922  0.00  0.00    -0.001 C 
ATOM      3  C3  LG1 d5015      35.566  33.426  56.385  0.00  0.00    -0.030 C 
ATOM      4  C4  LG1 d5015      34.670  34.670  56.072  0.00  0.00     0.063 C 
ATOM      5  C5  LG1 d5015      35.537  35.910  56.491  0.00  0.00     0.013 C 
ATOM      6  C6  LG1 d5015      37.021  35.404  56.594  0.00  0.00     0.006 C 
ATOM      7  C9  LG1 d5015      35.507  33.105  57.920  0.00  0.00     0.016 C 
ATOM      8  C10 LG1 d5015      35.319  32.179  55.507  0.00  0.00     0.011 C 
ATOM      9  C11 LG1 d5015      36.465  31.142  55.668  0.00  0.00     0.007 C 
ATOM     10  C12 LG1 d5015      37.854  31.748  55.338  0.00  0.00     0.002 C 
ATOM     11  C13 LG1 d5015      39.000  30.681  55.490  0.00  0.00    -0.016 C 
ATOM     12  C14 LG1 d5015      40.383  31.375  55.157  0.00  0.00    -0.068 C 
ATOM     13  C15 LG1 d5015      41.294  30.848  54.359  0.00  0.00     0.053 C 
ATOM     14  C16 LG1 d5015      41.147  29.508  53.812  0.00  0.00     0.149 C 
ATOM     15  C17 LG1 d5015      39.968  28.635  54.233  0.00  0.00     0.084 C 
ATOM     16  C18 LG1 d5015      38.729  29.530  54.486  0.00  0.00     0.022 C 
ATOM     17  O2  LG1 d5015      42.016  29.036  53.058  0.00  0.00    -0.293 OA
ATOM     18  C19 LG1 d5015      40.654  32.744  55.771  0.00  0.00     0.035 C 
ATOM     19  C20 LG1 d5015      39.439  33.686  55.661  0.00  0.00     0.010 C 
ATOM     20  C21 LG1 d5015      39.124  30.132  56.963  0.00  0.00     0.020 C 
ENDROOT
BRANCH   4  21
ATOM     21  C7  LG1 d5015      33.261  34.623  56.685  0.00  0.00     0.128 C 
ATOM     22  O1  LG1 d5015      32.462  33.789  56.315  0.00  0.00    -0.298 OA
ATOM     23  C8  LG1 d5015      32.887  35.604  57.742  0.00  0.00     0.091 C 
ENDBRANCH   4  21
TORSDOF 1
ENDMDL
MODEL 3
REMARK VINA RESULT:    -6.134      2.730      3.706
REMARK INTER + INTRA:          -6.697
REMARK INTER:                  -6.558
REMARK INTRA:                  -0.139
REMARK UNBOUND:                -0.205
REMARK  1 active torsions:
REMARK  status: ('A' for Active; 'I' for Inactive)
REMARK    1  A    between atoms: C7_7  and  C4_4 
ROOT
ATOM      1  C1  LG1 d5015      38.925  28.909  57.359  0.00  0.00    -0.004 C 
ATOM      2  C2  LG1 d5015      39.953  28.359  56.365  0.00  0.00    -0.001 C 
ATOM      3  C3  LG1 d5015      40.619  29.482  55.486  0.00  0.00    -0.030 C 
ATOM      4  C4  LG1 d5015      41.629  28.589  54.691  0.00  0.00     0.063 C 
ATOM      5  C5  LG1 d5015      42.163  27.550  55.739  0.00  0.00     0.013 C 
ATOM      6  C6  LG1 d5015      41.151  27.565  56.941  0.00  0.00     0.006 C 
ATOM      7  C9  LG1 d5015      41.405  30.548  56.327  0.00  0.00     0.016 C 
ATOM      8  C10 LG1 d5015      39.473  30.105  54.657  0.00  0.00     0.011 C 
ATOM      9  C11 LG1 d5015      38.361  30.678  55.579  0.00  0.00     0.007 C 
ATOM     10  C12 LG1 d5015      37.787  29.606  56.542  0.00  0.00     0.002 C 
ATOM     11  C13 LG1 d5015      36.652  30.199  57.456  0.00  0.00    -0.016 C 
ATOM     12  C14 LG1 d5015      36.132  29.057  58.420  0.00  0.00    -0.068 C 
ATOM     13  C15 LG1 d5015      34.854  28.796  58.625  0.00  0.00     0.053 C 
ATOM     14  C16 LG1 d5015      33.805  29.636  58.067  0.00  0.00     0.149 C 
ATOM     15  C17 LG1 d5015      34.167  30.905  57.302  0.00  0.00     0.084 C 
ATOM     16  C18 LG1 d5015      35.498  30.687  56.541  0.00  0.00     0.022 C 
ATOM     17  O2  LG1 d5015      32.607  29.366  58.269  0.00  0.00    -0.293 OA
ATOM     18  C19 LG1 d5015      37.175  28.192  59.120  0.00  0.00     0.035 C 
ATOM     19  C20 LG1 d5015      38.299  27.743  58.166  0.00  0.00     0.010 C 
ATOM     20  C21 LG1 d5015      37.170  31.362  58.386  0.00  0.00     0.020 C 
ENDROOT
BRANCH   4  21
ATOM     21  C7  LG1 d5015      42.716  29.363  53.928  0.00  0.00     0.128 C 
ATOM     22  O1  LG1 d5015      43.875  29.292  54.278  0.00  0.00    -0.298 OA
ATOM     23  C8  LG1 d5015      42.336  30.195  52.753  0.00  0.00     0.091 C 
ENDBRANCH   4  21
TORSDOF 1
ENDMDL
MODEL 4
REMARK VINA RESULT:    -5.984      1.849      6.934
REMARK INTER + INTRA:          -6.538
REMARK INTER:                  -6.334
REMARK INTRA:                  -0.204
REMARK UNBOUND:                -0.205
REMARK  1 active torsions:
REMARK  status: ('A' for Active; 'I' for Inactive)
REMARK    1  A    between atoms: C7_7  and  C4_4 
ROOT
ATOM      1  C1  LG1 d5015      38.777  31.680  55.416  0.00  0.00    -0.004 C 
ATOM      2  C2  LG1 d5015      38.211  32.455  56.611  0.00  0.00    -0.001 C 
ATOM      3  C3  LG1 d5015      38.780  33.918  56.719  0.00  0.00    -0.030 C 
ATOM      4  C4  LG1 d5015      37.944  34.404  57.950  0.00  0.00     0.063 C 
ATOM      5  C5  LG1 d5015      36.515  33.792  57.737  0.00  0.00     0.013 C 
ATOM      6  C6  LG1 d5015      36.675  32.636  56.683  0.00  0.00     0.006 C 
ATOM      7  C9  LG1 d5015      38.449  34.809  55.471  0.00  0.00     0.016 C 
ATOM      8  C10 LG1 d5015      40.299  33.765  56.955  0.00  0.00     0.011 C 
ATOM      9  C11 LG1 d5015      40.969  32.970  55.800  0.00  0.00     0.007 C 
ATOM     10  C12 LG1 d5015      40.327  31.573  55.600  0.00  0.00     0.002 C 
ATOM     11  C13 LG1 d5015      41.027  30.776  54.438  0.00  0.00    -0.016 C 
ATOM     12  C14 LG1 d5015      40.309  29.375  54.283  0.00  0.00    -0.068 C 
ATOM     13  C15 LG1 d5015      40.954  28.227  54.181  0.00  0.00     0.053 C 
ATOM     14  C16 LG1 d5015      42.404  28.173  54.078  0.00  0.00     0.149 C 
ATOM     15  C17 LG1 d5015      43.213  29.464  53.987  0.00  0.00     0.084 C 
ATOM     16  C18 LG1 d5015      42.517  30.569  54.821  0.00  0.00     0.022 C 
ATOM     17  O2  LG1 d5015      42.990  27.079  53.990  0.00  0.00    -0.293 OA
ATOM     18  C19 LG1 d5015      38.784  29.358  54.284  0.00  0.00     0.035 C 
ATOM     19  C20 LG1 d5015      38.190  30.245  55.395  0.00  0.00     0.010 C 
ATOM     20  C21 LG1 d5015      40.895  31.499  53.043  0.00  0.00     0.020 C 
ENDROOT
BRANCH   4  21
ATOM     21  C7  LG1 d5015      37.973  35.922  58.193  0.00  0.00     0.128 C 
ATOM     22  O1  LG1 d5015      39.006  36.469  58.517  0.00  0.00    -0.298 OA
ATOM     23  C8  LG1 d5015      36.725  36.717  58.021  0.00  0.00     0.091 C 
ENDBRANCH   4  21
TORSDOF 1
ENDMDL
MODEL 5
REMARK VINA RESULT:    -5.957      2.001      2.676
REMARK INTER + INTRA:          -6.510
REMARK INTER:                  -6.305
REMARK INTRA:                  -0.205
REMARK UNBOUND:                -0.205
REMARK  1 active torsions:
REMARK  status: ('A' for Active; 'I' for Inactive)
REMARK    1  A    between atoms: C7_7  and  C4_4 
ROOT
ATOM      1  C1  LG1 d5015      36.643  32.519  56.059  0.00  0.00    -0.004 C 
ATOM      2  C2  LG1 d5015      37.926  31.797  55.631  0.00  0.00    -0.001 C 
ATOM      3  C3  LG1 d5015      39.216  32.374  56.325  0.00  0.00    -0.030 C 
ATOM      4  C4  LG1 d5015      40.265  31.374  55.735  0.00  0.00     0.063 C 
ATOM      5  C5  LG1 d5015      39.544  29.981  55.737  0.00  0.00     0.013 C 
ATOM      6  C6  LG1 d5015      38.007  30.272  55.883  0.00  0.00     0.006 C 
ATOM      7  C9  LG1 d5015      39.189  32.250  57.890  0.00  0.00     0.016 C 
ATOM      8  C10 LG1 d5015      39.335  33.838  55.847  0.00  0.00     0.011 C 
ATOM      9  C11 LG1 d5015      38.067  34.656  56.218  0.00  0.00     0.007 C 
ATOM     10  C12 LG1 d5015      36.772  34.022  55.645  0.00  0.00     0.002 C 
ATOM     11  C13 LG1 d5015      35.501  34.871  56.017  0.00  0.00    -0.016 C 
ATOM     12  C14 LG1 d5015      34.223  34.154  55.416  0.00  0.00    -0.068 C 
ATOM     13  C15 LG1 d5015      33.279  34.784  54.741  0.00  0.00     0.053 C 
ATOM     14  C16 LG1 d5015      33.278  36.232  54.600  0.00  0.00     0.149 C 
ATOM     15  C17 LG1 d5015      34.329  37.071  55.321  0.00  0.00     0.084 C 
ATOM     16  C18 LG1 d5015      35.660  36.282  55.392  0.00  0.00     0.022 C 
ATOM     17  O2  LG1 d5015      32.381  36.802  53.953  0.00  0.00    -0.293 OA
ATOM     18  C19 LG1 d5015      34.103  32.646  55.606  0.00  0.00     0.035 C 
ATOM     19  C20 LG1 d5015      35.426  31.912  55.315  0.00  0.00     0.010 C 
ATOM     20  C21 LG1 d5015      35.267  34.962  57.573  0.00  0.00     0.020 C 
ENDROOT
BRANCH   4  21
ATOM     21  C7  LG1 d5015      41.640  31.398  56.425  0.00  0.00     0.128 C 
ATOM     22  O1  LG1 d5015      42.352  32.375  56.332  0.00  0.00    -0.298 OA
ATOM     23  C8  LG1 d5015      42.085  30.216  57.213  0.00  0.00     0.091 C 
ENDBRANCH   4  21
TORSDOF 1
ENDMDL
