REMARK INTER + INTRA:          -6.730
REMARK INTER:                  -6.525
REMARK INTRA:                  -0.205
REMARK UNBOUND:                -0.205
REMARK  1 active torsions:
REMARK  status: ('A' for Active; 'I' for Inactive)
REMARK    1  A    between atoms: C7_7  and  C4_4 
ROOT
ATOM      1  C1  LG1 d5015      38.119  33.049  56.166  0.00  0.00    -0.004 C 
ATOM      2  C2  LG1 d5015      36.952  34.011  55.922  0.00  0.00    -0.001 C 
ATOM      3  C3  LG1 d5015      35.566  33.426  56.385  0.00  0.00    -0.030 C 
ATOM      4  C4  LG1 d5015      34.670  34.670  56.072  0.00  0.00     0.063 C 
ATOM      5  C5  LG1 d5015      35.537  35.910  56.491  0.00  0.00     0.013 C 
ATOM      6  C6  LG1 d5015      37.021  35.404  56.594  0.00  0.00     0.006 C 
ATOM      7  C9  LG1 d5015      35.507  33.105  57.920  0.00  0.00     0.016 C 
ATOM      8  C10 LG1 d5015      35.319  32.179  55.507  0.00  0.00     0.011 C 
ATOM      9  C11 LG1 d5015      36.465  31.142  55.668  0.00  0.00     0.007 C 
ATOM     10  C12 LG1 d5015      37.854  31.748  55.338  0.00  0.00     0.002 C 
ATOM     11  C13 LG1 d5015      39.000  30.681  55.490  0.00  0.00    -0.016 C 
ATOM     12  C14 LG1 d5015      40.383  31.375  55.157  0.00  0.00    -0.068 C 
ATOM     13  C15 LG1 d5015      41.294  30.848  54.359  0.00  0.00     0.053 C 
ATOM     14  C16 LG1 d5015      41.147  29.508  53.812  0.00  0.00     0.149 C 
ATOM     15  C17 LG1 d5015      39.968  28.635  54.233  0.00  0.00     0.084 C 
ATOM     16  C18 LG1 d5015      38.729  29.530  54.486  0.00  0.00     0.022 C 
ATOM     17  O2  LG1 d5015      42.016  29.036  53.058  0.00  0.00    -0.293 OA
ATOM     18  C19 LG1 d5015      40.654  32.744  55.771  0.00  0.00     0.035 C 
ATOM     19  C20 LG1 d5015      39.439  33.686  55.661  0.00  0.00     0.010 C 
ATOM     20  C21 LG1 d5015      39.124  30.132  56.963  0.00  0.00     0.020 C 
ENDROOT
BRANCH   4  21
ATOM     21  C7  LG1 d5015      33.261  34.623  56.685  0.00  0.00     0.128 C 
ATOM     22  O1  LG1 d5015      32.462  33.789  56.315  0.00  0.00    -0.298 OA
ATOM     23  C8  LG1 d5015      32.887  35.604  57.742  0.00  0.00     0.091 C 
ENDBRANCH   4  21
TORSDOF 1
ENDMDL
