REMARK INTER + INTRA:          -7.353
REMARK INTER:                  -7.162
REMARK INTRA:                  -0.191
REMARK UNBOUND:                -0.205
REMARK  1 active torsions:
REMARK  status: ('A' for Active; 'I' for Inactive)
REMARK    1  A    between atoms: C7_7  and  C4_4 
ROOT
ATOM      1  C1  LG1 d5015      38.049  31.163  55.769  0.00  0.00    -0.004 C 
ATOM      2  C2  LG1 d5015      38.872  30.493  54.664  0.00  0.00    -0.001 C 
ATOM      3  C3  LG1 d5015      40.403  30.856  54.732  0.00  0.00    -0.030 C 
ATOM      4  C4  LG1 d5015      40.908  29.958  53.554  0.00  0.00     0.063 C 
ATOM      5  C5  LG1 d5015      40.086  28.627  53.676  0.00  0.00     0.013 C 
ATOM      6  C6  LG1 d5015      38.849  28.947  54.592  0.00  0.00     0.006 C 
ATOM      7  C9  LG1 d5015      41.090  30.408  56.071  0.00  0.00     0.016 C 
ATOM      8  C10 LG1 d5015      40.487  32.381  54.502  0.00  0.00     0.011 C 
ATOM      9  C11 LG1 d5015      39.663  33.156  55.567  0.00  0.00     0.007 C 
ATOM     10  C12 LG1 d5015      38.177  32.712  55.596  0.00  0.00     0.002 C 
ATOM     11  C13 LG1 d5015      37.355  33.518  56.669  0.00  0.00    -0.016 C 
ATOM     12  C14 LG1 d5015      35.859  32.999  56.652  0.00  0.00    -0.068 C 
ATOM     13  C15 LG1 d5015      34.807  33.796  56.630  0.00  0.00     0.053 C 
ATOM     14  C16 LG1 d5015      34.940  35.240  56.746  0.00  0.00     0.149 C 
ATOM     15  C17 LG1 d5015      36.310  35.864  56.996  0.00  0.00     0.084 C 
ATOM     16  C18 LG1 d5015      37.398  35.021  56.285  0.00  0.00     0.022 C 
ATOM     17  O2  LG1 d5015      33.934  35.970  56.716  0.00  0.00    -0.293 OA
ATOM     18  C19 LG1 d5015      35.634  31.491  56.627  0.00  0.00     0.035 C 
ATOM     19  C20 LG1 d5015      36.555  30.778  55.618  0.00  0.00     0.010 C 
ATOM     20  C21 LG1 d5015      37.887  33.291  58.136  0.00  0.00     0.020 C 
ENDROOT
BRANCH   4  21
ATOM     21  C7  LG1 d5015      42.434  29.778  53.487  0.00  0.00     0.128 C 
ATOM     22  O1  LG1 d5015      43.142  30.698  53.140  0.00  0.00    -0.298 OA
ATOM     23  C8  LG1 d5015      43.035  28.468  53.860  0.00  0.00     0.091 C 
ENDBRANCH   4  21
TORSDOF 1
ENDMDL
