REMARK INTER + INTRA:          -6.671
REMARK INTER:                  -6.486
REMARK INTRA:                  -0.185
REMARK UNBOUND:                -0.205
REMARK  1 active torsions:
REMARK  status: ('A' for Active; 'I' for Inactive)
REMARK    1  A    between atoms: C7_7  and  C4_4 
ROOT
ATOM      1  C1  LG1 d5015      39.125  29.070  56.732  0.00  0.00    -0.004 C 
ATOM      2  C2  LG1 d5015      39.761  29.385  55.374  0.00  0.00    -0.001 C 
ATOM      3  C3  LG1 d5015      40.288  30.865  55.271  0.00  0.00    -0.030 C 
ATOM      4  C4  LG1 d5015      40.920  30.789  53.841  0.00  0.00     0.063 C 
ATOM      5  C5  LG1 d5015      41.593  29.373  53.769  0.00  0.00     0.013 C 
ATOM      6  C6  LG1 d5015      40.965  28.519  54.930  0.00  0.00     0.006 C 
ATOM      7  C9  LG1 d5015      41.402  31.204  56.323  0.00  0.00     0.016 C 
ATOM      8  C10 LG1 d5015      39.043  31.768  55.411  0.00  0.00     0.011 C 
ATOM      9  C11 LG1 d5015      38.310  31.510  56.756  0.00  0.00     0.007 C 
ATOM     10  C12 LG1 d5015      37.900  30.024  56.925  0.00  0.00     0.002 C 
ATOM     11  C13 LG1 d5015      37.145  29.784  58.285  0.00  0.00    -0.016 C 
ATOM     12  C14 LG1 d5015      36.777  28.248  58.393  0.00  0.00    -0.068 C 
ATOM     13  C15 LG1 d5015      35.585  27.803  58.744  0.00  0.00     0.053 C 
ATOM     14  C16 LG1 d5015      34.533  28.705  59.186  0.00  0.00     0.149 C 
ATOM     15  C17 LG1 d5015      34.821  30.195  59.347  0.00  0.00     0.084 C 
ATOM     16  C18 LG1 d5015      35.851  30.640  58.279  0.00  0.00     0.022 C 
ATOM     17  O2  LG1 d5015      33.415  28.262  59.506  0.00  0.00    -0.293 OA
ATOM     18  C19 LG1 d5015      37.860  27.234  58.037  0.00  0.00     0.035 C 
ATOM     19  C20 LG1 d5015      38.610  27.608  56.744  0.00  0.00     0.010 C 
ATOM     20  C21 LG1 d5015      38.040  30.115  59.540  0.00  0.00     0.020 C 
ENDROOT
BRANCH   4  21
ATOM     21  C7  LG1 d5015      41.839  31.967  53.477  0.00  0.00     0.128 C 
ATOM     22  O1  LG1 d5015      41.403  33.098  53.462  0.00  0.00    -0.298 OA
ATOM     23  C8  LG1 d5015      43.269  31.708  53.149  0.00  0.00     0.091 C 
ENDBRANCH   4  21
TORSDOF 1
ENDMDL
