REMARK INTER + INTRA:          -6.697
REMARK INTER:                  -6.558
REMARK INTRA:                  -0.139
REMARK UNBOUND:                -0.205
REMARK  1 active torsions:
REMARK  status: ('A' for Active; 'I' for Inactive)
REMARK    1  A    between atoms: C7_7  and  C4_4 
ROOT
ATOM      1  C1  LG1 d5015      38.925  28.909  57.359  0.00  0.00    -0.004 C 
ATOM      2  C2  LG1 d5015      39.953  28.359  56.365  0.00  0.00    -0.001 C 
ATOM      3  C3  LG1 d5015      40.619  29.482  55.486  0.00  0.00    -0.030 C 
ATOM      4  C4  LG1 d5015      41.629  28.589  54.691  0.00  0.00     0.063 C 
ATOM      5  C5  LG1 d5015      42.163  27.550  55.739  0.00  0.00     0.013 C 
ATOM      6  C6  LG1 d5015      41.151  27.565  56.941  0.00  0.00     0.006 C 
ATOM      7  C9  LG1 d5015      41.405  30.548  56.327  0.00  0.00     0.016 C 
ATOM      8  C10 LG1 d5015      39.473  30.105  54.657  0.00  0.00     0.011 C 
ATOM      9  C11 LG1 d5015      38.361  30.678  55.579  0.00  0.00     0.007 C 
ATOM     10  C12 LG1 d5015      37.787  29.606  56.542  0.00  0.00     0.002 C 
ATOM     11  C13 LG1 d5015      36.652  30.199  57.456  0.00  0.00    -0.016 C 
ATOM     12  C14 LG1 d5015      36.132  29.057  58.420  0.00  0.00    -0.068 C 
ATOM     13  C15 LG1 d5015      34.854  28.796  58.625  0.00  0.00     0.053 C 
ATOM     14  C16 LG1 d5015      33.805  29.636  58.067  0.00  0.00     0.149 C 
ATOM     15  C17 LG1 d5015      34.167  30.905  57.302  0.00  0.00     0.084 C 
ATOM     16  C18 LG1 d5015      35.498  30.687  56.541  0.00  0.00     0.022 C 
ATOM     17  O2  LG1 d5015      32.607  29.366  58.269  0.00  0.00    -0.293 OA
ATOM     18  C19 LG1 d5015      37.175  28.192  59.120  0.00  0.00     0.035 C 
ATOM     19  C20 LG1 d5015      38.299  27.743  58.166  0.00  0.00     0.010 C 
ATOM     20  C21 LG1 d5015      37.170  31.362  58.386  0.00  0.00     0.020 C 
ENDROOT
BRANCH   4  21
ATOM     21  C7  LG1 d5015      42.716  29.363  53.928  0.00  0.00     0.128 C 
ATOM     22  O1  LG1 d5015      43.875  29.292  54.278  0.00  0.00    -0.298 OA
ATOM     23  C8  LG1 d5015      42.336  30.195  52.753  0.00  0.00     0.091 C 
ENDBRANCH   4  21
TORSDOF 1
ENDMDL
