REMARK INTER + INTRA:          -7.348
REMARK INTER:                  -7.155
REMARK INTRA:                  -0.193
REMARK UNBOUND:                -0.134
REMARK  1 active torsions:
REMARK  status: ('A' for Active; 'I' for Inactive)
REMARK    1  A    between atoms: C7_7  and  C4_4 
ROOT
ATOM      1  C1  LG1 d5015      38.053  31.175  55.756  0.00  0.00    -0.004 C 
ATOM      2  C2  LG1 d5015      38.874  30.493  54.656  0.00  0.00    -0.001 C 
ATOM      3  C3  LG1 d5015      40.404  30.862  54.713  0.00  0.00    -0.030 C 
ATOM      4  C4  LG1 d5015      40.908  29.950  53.545  0.00  0.00     0.063 C 
ATOM      5  C5  LG1 d5015      40.090  28.618  53.688  0.00  0.00     0.013 C 
ATOM      6  C6  LG1 d5015      38.856  28.946  54.604  0.00  0.00     0.006 C 
ATOM      7  C9  LG1 d5015      41.098  30.434  56.054  0.00  0.00     0.016 C 
ATOM      8  C10 LG1 d5015      40.482  32.384  54.462  0.00  0.00     0.011 C 
ATOM      9  C11 LG1 d5015      39.659  33.171  55.520  0.00  0.00     0.007 C 
ATOM     10  C12 LG1 d5015      38.175  32.722  55.561  0.00  0.00     0.002 C 
ATOM     11  C13 LG1 d5015      37.355  33.540  56.626  0.00  0.00    -0.016 C 
ATOM     12  C14 LG1 d5015      35.862  33.015  56.623  0.00  0.00    -0.068 C 
ATOM     13  C15 LG1 d5015      34.806  33.809  56.595  0.00  0.00     0.053 C 
ATOM     14  C16 LG1 d5015      34.935  35.255  56.691  0.00  0.00     0.149 C 
ATOM     15  C17 LG1 d5015      36.304  35.886  56.927  0.00  0.00     0.084 C 
ATOM     16  C18 LG1 d5015      37.392  35.038  56.222  0.00  0.00     0.022 C 
ATOM     17  O2  LG1 d5015      33.926  35.981  56.655  0.00  0.00    -0.293 OA
ATOM     18  C19 LG1 d5015      35.641  31.507  56.619  0.00  0.00     0.035 C 
ATOM     19  C20 LG1 d5015      36.560  30.783  55.616  0.00  0.00     0.010 C 
ATOM     20  C21 LG1 d5015      37.894  33.334  58.094  0.00  0.00     0.020 C 
ENDROOT
BRANCH   4  21
ATOM     21  C7  LG1 d5015      42.434  29.774  53.474  0.00  0.00     0.128 C 
ATOM     22  O1  LG1 d5015      43.137  30.693  53.115  0.00  0.00    -0.298 OA
ATOM     23  C8  LG1 d5015      43.040  28.468  53.858  0.00  0.00     0.091 C 
ENDBRANCH   4  21
TORSDOF 1
ENDMDL
