REMARK INTER + INTRA:          -6.510
REMARK INTER:                  -6.305
REMARK INTRA:                  -0.205
REMARK UNBOUND:                -0.205
REMARK  1 active torsions:
REMARK  status: ('A' for Active; 'I' for Inactive)
REMARK    1  A    between atoms: C7_7  and  C4_4 
ROOT
ATOM      1  C1  LG1 d5015      36.643  32.519  56.059  0.00  0.00    -0.004 C 
ATOM      2  C2  LG1 d5015      37.926  31.797  55.631  0.00  0.00    -0.001 C 
ATOM      3  C3  LG1 d5015      39.216  32.374  56.325  0.00  0.00    -0.030 C 
ATOM      4  C4  LG1 d5015      40.265  31.374  55.735  0.00  0.00     0.063 C 
ATOM      5  C5  LG1 d5015      39.544  29.981  55.737  0.00  0.00     0.013 C 
ATOM      6  C6  LG1 d5015      38.007  30.272  55.883  0.00  0.00     0.006 C 
ATOM      7  C9  LG1 d5015      39.189  32.250  57.890  0.00  0.00     0.016 C 
ATOM      8  C10 LG1 d5015      39.335  33.838  55.847  0.00  0.00     0.011 C 
ATOM      9  C11 LG1 d5015      38.067  34.656  56.218  0.00  0.00     0.007 C 
ATOM     10  C12 LG1 d5015      36.772  34.022  55.645  0.00  0.00     0.002 C 
ATOM     11  C13 LG1 d5015      35.501  34.871  56.017  0.00  0.00    -0.016 C 
ATOM     12  C14 LG1 d5015      34.223  34.154  55.416  0.00  0.00    -0.068 C 
ATOM     13  C15 LG1 d5015      33.279  34.784  54.741  0.00  0.00     0.053 C 
ATOM     14  C16 LG1 d5015      33.278  36.232  54.600  0.00  0.00     0.149 C 
ATOM     15  C17 LG1 d5015      34.329  37.071  55.321  0.00  0.00     0.084 C 
ATOM     16  C18 LG1 d5015      35.660  36.282  55.392  0.00  0.00     0.022 C 
ATOM     17  O2  LG1 d5015      32.381  36.802  53.953  0.00  0.00    -0.293 OA
ATOM     18  C19 LG1 d5015      34.103  32.646  55.606  0.00  0.00     0.035 C 
ATOM     19  C20 LG1 d5015      35.426  31.912  55.315  0.00  0.00     0.010 C 
ATOM     20  C21 LG1 d5015      35.267  34.962  57.573  0.00  0.00     0.020 C 
ENDROOT
BRANCH   4  21
ATOM     21  C7  LG1 d5015      41.640  31.398  56.425  0.00  0.00     0.128 C 
ATOM     22  O1  LG1 d5015      42.352  32.375  56.332  0.00  0.00    -0.298 OA
ATOM     23  C8  LG1 d5015      42.085  30.216  57.213  0.00  0.00     0.091 C 
ENDBRANCH   4  21
TORSDOF 1
ENDMDL
