REMARK INTER + INTRA:          -6.530
REMARK INTER:                  -6.326
REMARK INTRA:                  -0.203
REMARK UNBOUND:                -0.205
REMARK  1 active torsions:
REMARK  status: ('A' for Active; 'I' for Inactive)
REMARK    1  A    between atoms: C7_7  and  C4_4 
ROOT
ATOM      1  C1  LG1 d5015      38.757  31.679  55.379  0.00  0.00    -0.004 C 
ATOM      2  C2  LG1 d5015      38.187  32.447  56.576  0.00  0.00    -0.001 C 
ATOM      3  C3  LG1 d5015      38.748  33.914  56.689  0.00  0.00    -0.030 C 
ATOM      4  C4  LG1 d5015      37.909  34.391  57.921  0.00  0.00     0.063 C 
ATOM      5  C5  LG1 d5015      36.484  33.772  57.706  0.00  0.00     0.013 C 
ATOM      6  C6  LG1 d5015      36.650  32.620  56.649  0.00  0.00     0.006 C 
ATOM      7  C9  LG1 d5015      38.412  34.807  55.443  0.00  0.00     0.016 C 
ATOM      8  C10 LG1 d5015      40.268  33.768  56.924  0.00  0.00     0.011 C 
ATOM      9  C11 LG1 d5015      40.942  32.981  55.766  0.00  0.00     0.007 C 
ATOM     10  C12 LG1 d5015      40.308  31.580  55.562  0.00  0.00     0.002 C 
ATOM     11  C13 LG1 d5015      41.013  30.791  54.397  0.00  0.00    -0.016 C 
ATOM     12  C14 LG1 d5015      40.301  29.386  54.238  0.00  0.00    -0.068 C 
ATOM     13  C15 LG1 d5015      40.953  28.242  54.132  0.00  0.00     0.053 C 
ATOM     14  C16 LG1 d5015      42.403  28.197  54.029  0.00  0.00     0.149 C 
ATOM     15  C17 LG1 d5015      43.205  29.492  53.943  0.00  0.00     0.084 C 
ATOM     16  C18 LG1 d5015      42.503  30.590  54.780  0.00  0.00     0.022 C 
ATOM     17  O2  LG1 d5015      42.995  27.107  53.938  0.00  0.00    -0.293 OA
ATOM     18  C19 LG1 d5015      38.777  29.361  54.239  0.00  0.00     0.035 C 
ATOM     19  C20 LG1 d5015      38.178  30.242  55.353  0.00  0.00     0.010 C 
ATOM     20  C21 LG1 d5015      40.877  31.518  53.005  0.00  0.00     0.020 C 
ENDROOT
BRANCH   4  21
ATOM     21  C7  LG1 d5015      37.930  35.909  58.169  0.00  0.00     0.128 C 
ATOM     22  O1  LG1 d5015      38.960  36.458  58.498  0.00  0.00    -0.298 OA
ATOM     23  C8  LG1 d5015      36.679  36.698  57.995  0.00  0.00     0.091 C 
ENDBRANCH   4  21
TORSDOF 1
ENDMDL
