REMARK INTER + INTRA:          -6.518
REMARK INTER:                  -6.314
REMARK INTRA:                  -0.204
REMARK UNBOUND:                -0.204
REMARK  1 active torsions:
REMARK  status: ('A' for Active; 'I' for Inactive)
REMARK    1  A    between atoms: C7_7  and  C4_4 
ROOT
ATOM      1  C1  LG1 d5015      36.516  32.699  56.072  0.00  0.00    -0.004 C 
ATOM      2  C2  LG1 d5015      37.810  31.988  55.660  0.00  0.00    -0.001 C 
ATOM      3  C3  LG1 d5015      39.090  32.599  56.343  0.00  0.00    -0.030 C 
ATOM      4  C4  LG1 d5015      40.156  31.603  55.775  0.00  0.00     0.063 C 
ATOM      5  C5  LG1 d5015      39.456  30.199  55.806  0.00  0.00     0.013 C 
ATOM      6  C6  LG1 d5015      37.914  30.470  55.944  0.00  0.00     0.006 C 
ATOM      7  C9  LG1 d5015      39.065  32.508  57.909  0.00  0.00     0.016 C 
ATOM      8  C10 LG1 d5015      39.188  34.054  55.833  0.00  0.00     0.011 C 
ATOM      9  C11 LG1 d5015      37.907  34.860  56.186  0.00  0.00     0.007 C 
ATOM     10  C12 LG1 d5015      36.623  34.194  55.626  0.00  0.00     0.002 C 
ATOM     11  C13 LG1 d5015      35.339  35.031  55.978  0.00  0.00    -0.016 C 
ATOM     12  C14 LG1 d5015      34.073  34.283  55.393  0.00  0.00    -0.068 C 
ATOM     13  C15 LG1 d5015      33.120  34.884  54.703  0.00  0.00     0.053 C 
ATOM     14  C16 LG1 d5015      33.097  36.329  54.532  0.00  0.00     0.149 C 
ATOM     15  C17 LG1 d5015      34.134  37.199  55.235  0.00  0.00     0.084 C 
ATOM     16  C18 LG1 d5015      35.477  36.432  55.323  0.00  0.00     0.022 C 
ATOM     17  O2  LG1 d5015      32.192  36.871  53.873  0.00  0.00    -0.293 OA
ATOM     18  C19 LG1 d5015      33.975  32.778  55.615  0.00  0.00     0.035 C 
ATOM     19  C20 LG1 d5015      35.309  32.058  55.340  0.00  0.00     0.010 C 
ATOM     20  C21 LG1 d5015      35.102  35.152  57.533  0.00  0.00     0.020 C 
ENDROOT
BRANCH   4  21
ATOM     21  C7  LG1 d5015      41.529  31.662  56.464  0.00  0.00     0.128 C 
ATOM     22  O1  LG1 d5015      42.224  32.650  56.356  0.00  0.00    -0.298 OA
ATOM     23  C8  LG1 d5015      41.995  30.500  57.272  0.00  0.00     0.091 C 
ENDBRANCH   4  21
TORSDOF 1
ENDMDL
