REMARK INTER + INTRA:          -6.718
REMARK INTER:                  -6.516
REMARK INTRA:                  -0.202
REMARK UNBOUND:                -0.204
REMARK  1 active torsions:
REMARK  status: ('A' for Active; 'I' for Inactive)
REMARK    1  A    between atoms: C7_7  and  C4_4 
ROOT
ATOM      1  C1  LG1 d5015      38.125  33.082  56.150  0.00  0.00    -0.004 C 
ATOM      2  C2  LG1 d5015      36.955  34.038  55.897  0.00  0.00    -0.001 C 
ATOM      3  C3  LG1 d5015      35.576  33.467  56.397  0.00  0.00    -0.030 C 
ATOM      4  C4  LG1 d5015      34.676  34.703  56.063  0.00  0.00     0.063 C 
ATOM      5  C5  LG1 d5015      35.549  35.953  56.433  0.00  0.00     0.013 C 
ATOM      6  C6  LG1 d5015      37.035  35.449  56.528  0.00  0.00     0.006 C 
ATOM      7  C9  LG1 d5015      35.540  33.189  57.941  0.00  0.00     0.016 C 
ATOM      8  C10 LG1 d5015      35.315  32.196  55.558  0.00  0.00     0.011 C 
ATOM      9  C11 LG1 d5015      36.463  31.163  55.731  0.00  0.00     0.007 C 
ATOM     10  C12 LG1 d5015      37.847  31.759  55.363  0.00  0.00     0.002 C 
ATOM     11  C13 LG1 d5015      38.995  30.695  55.528  0.00  0.00    -0.016 C 
ATOM     12  C14 LG1 d5015      40.373  31.378  55.154  0.00  0.00    -0.068 C 
ATOM     13  C15 LG1 d5015      41.272  30.829  54.358  0.00  0.00     0.053 C 
ATOM     14  C16 LG1 d5015      41.116  29.474  53.852  0.00  0.00     0.149 C 
ATOM     15  C17 LG1 d5015      39.943  28.614  54.315  0.00  0.00     0.084 C 
ATOM     16  C18 LG1 d5015      38.708  29.516  54.560  0.00  0.00     0.022 C 
ATOM     17  O2  LG1 d5015      41.973  28.980  53.097  0.00  0.00    -0.293 OA
ATOM     18  C19 LG1 d5015      40.654  32.764  55.726  0.00  0.00     0.035 C 
ATOM     19  C20 LG1 d5015      39.438  33.703  55.608  0.00  0.00     0.010 C 
ATOM     20  C21 LG1 d5015      39.141  30.187  57.014  0.00  0.00     0.020 C 
ENDROOT
BRANCH   4  21
ATOM     21  C7  LG1 d5015      33.276  34.674  56.698  0.00  0.00     0.128 C 
ATOM     22  O1  LG1 d5015      32.477  33.821  56.376  0.00  0.00    -0.298 OA
ATOM     23  C8  LG1 d5015      32.912  35.697  57.718  0.00  0.00     0.091 C 
ENDBRANCH   4  21
TORSDOF 1
ENDMDL
