REMARK INTER + INTRA:          -6.258
REMARK INTER:                  -6.123
REMARK INTRA:                  -0.134
REMARK UNBOUND:                -0.134
REMARK  1 active torsions:
REMARK  status: ('A' for Active; 'I' for Inactive)
REMARK    1  A    between atoms: C7_7  and  C4_4 
ROOT
ATOM      1  C1  LG1 d5015      38.702  29.234  57.034  0.00  0.00    -0.004 C 
ATOM      2  C2  LG1 d5015      39.485  29.475  55.738  0.00  0.00    -0.001 C 
ATOM      3  C3  LG1 d5015      39.877  30.985  55.529  0.00  0.00    -0.030 C 
ATOM      4  C4  LG1 d5015      40.703  30.831  54.209  0.00  0.00     0.063 C 
ATOM      5  C5  LG1 d5015      41.512  29.498  54.389  0.00  0.00     0.013 C 
ATOM      6  C6  LG1 d5015      40.815  28.705  55.554  0.00  0.00     0.006 C 
ATOM      7  C9  LG1 d5015      40.799  31.551  56.666  0.00  0.00     0.016 C 
ATOM      8  C10 LG1 d5015      38.545  31.756  55.405  0.00  0.00     0.011 C 
ATOM      9  C11 LG1 d5015      37.662  31.559  56.669  0.00  0.00     0.007 C 
ATOM     10  C12 LG1 d5015      37.376  30.063  56.958  0.00  0.00     0.002 C 
ATOM     11  C13 LG1 d5015      36.469  29.884  58.231  0.00  0.00    -0.016 C 
ATOM     12  C14 LG1 d5015      36.238  28.337  58.472  0.00  0.00    -0.068 C 
ATOM     13  C15 LG1 d5015      35.056  27.802  58.721  0.00  0.00     0.053 C 
ATOM     14  C16 LG1 d5015      33.873  28.625  58.919  0.00  0.00     0.149 C 
ATOM     15  C17 LG1 d5015      33.993  30.146  58.938  0.00  0.00     0.084 C 
ATOM     16  C18 LG1 d5015      35.112  30.587  57.963  0.00  0.00     0.022 C 
ATOM     17  O2  LG1 d5015      32.769  28.097  59.145  0.00  0.00    -0.293 OA
ATOM     18  C19 LG1 d5015      37.450  27.416  58.376  0.00  0.00     0.035 C 
ATOM     19  C20 LG1 d5015      38.331  27.734  57.152  0.00  0.00     0.010 C 
ATOM     20  C21 LG1 d5015      37.148  30.439  59.541  0.00  0.00     0.020 C 
ENDROOT
BRANCH   4  21
ATOM     21  C7  LG1 d5015      41.547  32.058  53.827  0.00  0.00     0.128 C 
ATOM     22  O1  LG1 d5015      42.758  31.995  53.844  0.00  0.00    -0.298 OA
ATOM     23  C8  LG1 d5015      40.866  33.321  53.427  0.00  0.00     0.091 C 
ENDBRANCH   4  21
TORSDOF 1
ENDMDL
