MODEL 1
REMARK VINA RESULT:    -6.745      0.000      0.000
REMARK INTER + INTRA:          -7.344
REMARK INTER:                  -7.150
REMARK INTRA:                  -0.193
REMARK UNBOUND:                -0.204
REMARK  1 active torsions:
REMARK  status: ('A' for Active; 'I' for Inactive)
REMARK    1  A    between atoms: C7_7  and  C4_4 
ROOT
ATOM      1  C1  LG1 d5015      38.052  31.159  55.761  0.00  0.00    -0.004 C 
ATOM      2  C2  LG1 d5015      38.871  30.475  54.662  0.00  0.00    -0.001 C 
ATOM      3  C3  LG1 d5015      40.400  30.848  54.714  0.00  0.00    -0.030 C 
ATOM      4  C4  LG1 d5015      40.903  29.933  53.548  0.00  0.00     0.063 C 
ATOM      5  C5  LG1 d5015      40.090  28.600  53.698  0.00  0.00     0.013 C 
ATOM      6  C6  LG1 d5015      38.857  28.928  54.617  0.00  0.00     0.006 C 
ATOM      7  C9  LG1 d5015      41.098  30.427  56.055  0.00  0.00     0.016 C 
ATOM      8  C10 LG1 d5015      40.474  32.370  54.456  0.00  0.00     0.011 C 
ATOM      9  C11 LG1 d5015      39.652  33.158  55.514  0.00  0.00     0.007 C 
ATOM     10  C12 LG1 d5015      38.169  32.706  55.560  0.00  0.00     0.002 C 
ATOM     11  C13 LG1 d5015      37.349  33.526  56.624  0.00  0.00    -0.016 C 
ATOM     12  C14 LG1 d5015      35.857  32.998  56.627  0.00  0.00    -0.068 C 
ATOM     13  C15 LG1 d5015      34.800  33.789  56.598  0.00  0.00     0.053 C 
ATOM     14  C16 LG1 d5015      34.926  35.235  56.688  0.00  0.00     0.149 C 
ATOM     15  C17 LG1 d5015      36.293  35.871  56.917  0.00  0.00     0.084 C 
ATOM     16  C18 LG1 d5015      37.382  35.023  56.214  0.00  0.00     0.022 C 
ATOM     17  O2  LG1 d5015      33.915  35.959  56.652  0.00  0.00    -0.293 OA
ATOM     18  C19 LG1 d5015      35.641  31.489  56.629  0.00  0.00     0.035 C 
ATOM     19  C20 LG1 d5015      36.559  30.764  55.626  0.00  0.00     0.010 C 
ATOM     20  C21 LG1 d5015      37.892  33.328  58.091  0.00  0.00     0.020 C 
ENDROOT
BRANCH   4  21
ATOM     21  C7  LG1 d5015      42.430  29.760  53.474  0.00  0.00     0.128 C 
ATOM     22  O1  LG1 d5015      43.131  30.681  53.113  0.00  0.00    -0.298 OA
ATOM     23  C8  LG1 d5015      43.039  28.456  53.857  0.00  0.00     0.091 C 
ENDBRANCH   4  21
TORSDOF 1
ENDMDL
MODEL 2
REMARK VINA RESULT:    -6.201      3.050      4.180
REMARK INTER + INTRA:          -6.768
REMARK INTER:                  -6.570
REMARK INTRA:                  -0.198
REMARK UNBOUND:                -0.204
REMARK  1 active torsions:
REMARK  status: ('A' for Active; 'I' for Inactive)
REMARK    1  A    between atoms: C7_7  and  C4_4 
ROOT
ATOM      1  C1  LG1 d5015      39.348  28.991  56.661  0.00  0.00    -0.004 C 
ATOM      2  C2  LG1 d5015      39.929  29.343  55.287  0.00  0.00    -0.001 C 
ATOM      3  C3  LG1 d5015      40.449  30.826  55.202  0.00  0.00    -0.030 C 
ATOM      4  C4  LG1 d5015      41.023  30.790  53.747  0.00  0.00     0.063 C 
ATOM      5  C5  LG1 d5015      41.694  29.378  53.610  0.00  0.00     0.013 C 
ATOM      6  C6  LG1 d5015      41.115  28.492  54.772  0.00  0.00     0.006 C 
ATOM      7  C9  LG1 d5015      41.604  31.140  56.217  0.00  0.00     0.016 C 
ATOM      8  C10 LG1 d5015      39.209  31.723  55.416  0.00  0.00     0.011 C 
ATOM      9  C11 LG1 d5015      38.532  31.427  56.783  0.00  0.00     0.007 C 
ATOM     10  C12 LG1 d5015      38.131  29.936  56.928  0.00  0.00     0.002 C 
ATOM     11  C13 LG1 d5015      37.432  29.659  58.311  0.00  0.00    -0.016 C 
ATOM     12  C14 LG1 d5015      37.071  28.120  58.393  0.00  0.00    -0.068 C 
ATOM     13  C15 LG1 d5015      35.894  27.663  58.780  0.00  0.00     0.053 C 
ATOM     14  C16 LG1 d5015      34.860  28.551  59.288  0.00  0.00     0.149 C 
ATOM     15  C17 LG1 d5015      35.153  30.037  59.477  0.00  0.00     0.084 C 
ATOM     16  C18 LG1 d5015      36.138  30.512  58.380  0.00  0.00     0.022 C 
ATOM     17  O2  LG1 d5015      33.757  28.097  59.641  0.00  0.00    -0.293 OA
ATOM     18  C19 LG1 d5015      38.139  27.119  57.967  0.00  0.00     0.035 C 
ATOM     19  C20 LG1 d5015      38.836  27.528  56.655  0.00  0.00     0.010 C 
ATOM     20  C21 LG1 d5015      38.377  29.959  59.537  0.00  0.00     0.020 C 
ENDROOT
BRANCH   4  21
ATOM     21  C7  LG1 d5015      41.925  31.979  53.376  0.00  0.00     0.128 C 
ATOM     22  O1  LG1 d5015      41.474  33.104  53.359  0.00  0.00    -0.298 OA
ATOM     23  C8  LG1 d5015      43.358  31.738  53.048  0.00  0.00     0.091 C 
ENDBRANCH   4  21
TORSDOF 1
ENDMDL
MODEL 3
REMARK VINA RESULT:    -6.155      1.250      7.298
REMARK INTER + INTRA:          -6.718
REMARK INTER:                  -6.516
REMARK INTRA:                  -0.202
REMARK UNBOUND:                -0.204
REMARK  1 active torsions:
REMARK  status: ('A' for Active; 'I' for Inactive)
REMARK    1  A    between atoms: C7_7  and  C4_4 
ROOT
ATOM      1  C1  LG1 d5015      38.125  33.082  56.150  0.00  0.00    -0.004 C 
ATOM      2  C2  LG1 d5015      36.955  34.038  55.897  0.00  0.00    -0.001 C 
ATOM      3  C3  LG1 d5015      35.576  33.467  56.397  0.00  0.00    -0.030 C 
ATOM      4  C4  LG1 d5015      34.676  34.703  56.063  0.00  0.00     0.063 C 
ATOM      5  C5  LG1 d5015      35.549  35.953  56.433  0.00  0.00     0.013 C 
ATOM      6  C6  LG1 d5015      37.035  35.449  56.528  0.00  0.00     0.006 C 
ATOM      7  C9  LG1 d5015      35.540  33.189  57.941  0.00  0.00     0.016 C 
ATOM      8  C10 LG1 d5015      35.315  32.196  55.558  0.00  0.00     0.011 C 
ATOM      9  C11 LG1 d5015      36.463  31.163  55.731  0.00  0.00     0.007 C 
ATOM     10  C12 LG1 d5015      37.847  31.759  55.363  0.00  0.00     0.002 C 
ATOM     11  C13 LG1 d5015      38.995  30.695  55.528  0.00  0.00    -0.016 C 
ATOM     12  C14 LG1 d5015      40.373  31.378  55.154  0.00  0.00    -0.068 C 
ATOM     13  C15 LG1 d5015      41.272  30.829  54.358  0.00  0.00     0.053 C 
ATOM     14  C16 LG1 d5015      41.116  29.474  53.852  0.00  0.00     0.149 C 
ATOM     15  C17 LG1 d5015      39.943  28.614  54.315  0.00  0.00     0.084 C 
ATOM     16  C18 LG1 d5015      38.708  29.516  54.560  0.00  0.00     0.022 C 
ATOM     17  O2  LG1 d5015      41.973  28.980  53.097  0.00  0.00    -0.293 OA
ATOM     18  C19 LG1 d5015      40.654  32.764  55.726  0.00  0.00     0.035 C 
ATOM     19  C20 LG1 d5015      39.438  33.703  55.608  0.00  0.00     0.010 C 
ATOM     20  C21 LG1 d5015      39.141  30.187  57.014  0.00  0.00     0.020 C 
ENDROOT
BRANCH   4  21
ATOM     21  C7  LG1 d5015      33.276  34.674  56.698  0.00  0.00     0.128 C 
ATOM     22  O1  LG1 d5015      32.477  33.821  56.376  0.00  0.00    -0.298 OA
ATOM     23  C8  LG1 d5015      32.912  35.697  57.718  0.00  0.00     0.091 C 
ENDBRANCH   4  21
TORSDOF 1
ENDMDL
MODEL 4
REMARK VINA RESULT:    -5.990      1.896      6.916
REMARK INTER + INTRA:          -6.544
REMARK INTER:                  -6.342
REMARK INTRA:                  -0.202
REMARK UNBOUND:                -0.204
REMARK  1 active torsions:
REMARK  status: ('A' for Active; 'I' for Inactive)
REMARK    1  A    between atoms: C7_7  and  C4_4 
ROOT
ATOM      1  C1  LG1 d5015      38.771  31.770  55.367  0.00  0.00    -0.004 C 
ATOM      2  C2  LG1 d5015      38.258  32.565  56.573  0.00  0.00    -0.001 C 
ATOM      3  C3  LG1 d5015      38.875  34.010  56.664  0.00  0.00    -0.030 C 
ATOM      4  C4  LG1 d5015      38.083  34.524  57.912  0.00  0.00     0.063 C 
ATOM      5  C5  LG1 d5015      36.631  33.957  57.733  0.00  0.00     0.013 C 
ATOM      6  C6  LG1 d5015      36.731  32.795  56.679  0.00  0.00     0.006 C 
ATOM      7  C9  LG1 d5015      38.544  34.909  55.421  0.00  0.00     0.016 C 
ATOM      8  C10 LG1 d5015      40.394  33.809  56.865  0.00  0.00     0.011 C 
ATOM      9  C11 LG1 d5015      41.012  32.991  55.697  0.00  0.00     0.007 C 
ATOM     10  C12 LG1 d5015      40.321  31.614  55.515  0.00  0.00     0.002 C 
ATOM     11  C13 LG1 d5015      40.969  30.794  54.339  0.00  0.00    -0.016 C 
ATOM     12  C14 LG1 d5015      40.203  29.416  54.204  0.00  0.00    -0.068 C 
ATOM     13  C15 LG1 d5015      40.809  28.248  54.090  0.00  0.00     0.053 C 
ATOM     14  C16 LG1 d5015      42.254  28.148  53.955  0.00  0.00     0.149 C 
ATOM     15  C17 LG1 d5015      43.101  29.412  53.842  0.00  0.00     0.084 C 
ATOM     16  C18 LG1 d5015      42.460  30.540  54.689  0.00  0.00     0.022 C 
ATOM     17  O2  LG1 d5015      42.802  27.036  53.856  0.00  0.00    -0.293 OA
ATOM     18  C19 LG1 d5015      38.679  29.447  54.241  0.00  0.00     0.035 C 
ATOM     19  C20 LG1 d5015      38.139  30.355  55.362  0.00  0.00     0.010 C 
ATOM     20  C21 LG1 d5015      40.828  31.519  52.946  0.00  0.00     0.020 C 
ENDROOT
BRANCH   4  21
ATOM     21  C7  LG1 d5015      38.166  36.041  58.151  0.00  0.00     0.128 C 
ATOM     22  O1  LG1 d5015      39.228  36.558  58.422  0.00  0.00    -0.298 OA
ATOM     23  C8  LG1 d5015      36.933  36.869  58.039  0.00  0.00     0.091 C 
ENDBRANCH   4  21
TORSDOF 1
ENDMDL
MODEL 5
REMARK VINA RESULT:    -5.965      2.079      2.870
REMARK INTER + INTRA:          -6.518
REMARK INTER:                  -6.314
REMARK INTRA:                  -0.204
REMARK UNBOUND:                -0.204
REMARK  1 active torsions:
REMARK  status: ('A' for Active; 'I' for Inactive)
REMARK    1  A    between atoms: C7_7  and  C4_4 
ROOT
ATOM      1  C1  LG1 d5015      36.516  32.699  56.072  0.00  0.00    -0.004 C 
ATOM      2  C2  LG1 d5015      37.810  31.988  55.660  0.00  0.00    -0.001 C 
ATOM      3  C3  LG1 d5015      39.090  32.599  56.343  0.00  0.00    -0.030 C 
ATOM      4  C4  LG1 d5015      40.156  31.603  55.775  0.00  0.00     0.063 C 
ATOM      5  C5  LG1 d5015      39.456  30.199  55.806  0.00  0.00     0.013 C 
ATOM      6  C6  LG1 d5015      37.914  30.470  55.944  0.00  0.00     0.006 C 
ATOM      7  C9  LG1 d5015      39.065  32.508  57.909  0.00  0.00     0.016 C 
ATOM      8  C10 LG1 d5015      39.188  34.054  55.833  0.00  0.00     0.011 C 
ATOM      9  C11 LG1 d5015      37.907  34.860  56.186  0.00  0.00     0.007 C 
ATOM     10  C12 LG1 d5015      36.623  34.194  55.626  0.00  0.00     0.002 C 
ATOM     11  C13 LG1 d5015      35.339  35.031  55.978  0.00  0.00    -0.016 C 
ATOM     12  C14 LG1 d5015      34.073  34.283  55.393  0.00  0.00    -0.068 C 
ATOM     13  C15 LG1 d5015      33.120  34.884  54.703  0.00  0.00     0.053 C 
ATOM     14  C16 LG1 d5015      33.097  36.329  54.532  0.00  0.00     0.149 C 
ATOM     15  C17 LG1 d5015      34.134  37.199  55.235  0.00  0.00     0.084 C 
ATOM     16  C18 LG1 d5015      35.477  36.432  55.323  0.00  0.00     0.022 C 
ATOM     17  O2  LG1 d5015      32.192  36.871  53.873  0.00  0.00    -0.293 OA
ATOM     18  C19 LG1 d5015      33.975  32.778  55.615  0.00  0.00     0.035 C 
ATOM     19  C20 LG1 d5015      35.309  32.058  55.340  0.00  0.00     0.010 C 
ATOM     20  C21 LG1 d5015      35.102  35.152  57.533  0.00  0.00     0.020 C 
ENDROOT
BRANCH   4  21
ATOM     21  C7  LG1 d5015      41.529  31.662  56.464  0.00  0.00     0.128 C 
ATOM     22  O1  LG1 d5015      42.224  32.650  56.356  0.00  0.00    -0.298 OA
ATOM     23  C8  LG1 d5015      41.995  30.500  57.272  0.00  0.00     0.091 C 
ENDBRANCH   4  21
TORSDOF 1
ENDMDL
