REMARK INTER + INTRA:          -6.426
REMARK INTER:                  -6.316
REMARK INTRA:                  -0.111
REMARK UNBOUND:                -0.134
REMARK  1 active torsions:
REMARK  status: ('A' for Active; 'I' for Inactive)
REMARK    1  A    between atoms: C7_7  and  C4_4 
ROOT
ATOM      1  C1  LG1 d5015      39.777  32.519  55.010  0.00  0.00    -0.004 C 
ATOM      2  C2  LG1 d5015      40.956  31.639  54.582  0.00  0.00    -0.001 C 
ATOM      3  C3  LG1 d5015      40.750  30.120  54.941  0.00  0.00    -0.030 C 
ATOM      4  C4  LG1 d5015      42.058  29.549  54.300  0.00  0.00     0.063 C 
ATOM      5  C5  LG1 d5015      42.237  30.349  52.962  0.00  0.00     0.013 C 
ATOM      6  C6  LG1 d5015      41.331  31.628  53.080  0.00  0.00     0.006 C 
ATOM      7  C9  LG1 d5015      39.498  29.479  54.246  0.00  0.00     0.016 C 
ATOM      8  C10 LG1 d5015      40.672  30.057  56.483  0.00  0.00     0.011 C 
ATOM      9  C11 LG1 d5015      39.512  30.939  57.023  0.00  0.00     0.007 C 
ATOM     10  C12 LG1 d5015      39.636  32.416  56.565  0.00  0.00     0.002 C 
ATOM     11  C13 LG1 d5015      38.463  33.297  57.133  0.00  0.00    -0.016 C 
ATOM     12  C14 LG1 d5015      38.647  34.779  56.611  0.00  0.00    -0.068 C 
ATOM     13  C15 LG1 d5015      38.558  35.846  57.384  0.00  0.00     0.053 C 
ATOM     14  C16 LG1 d5015      38.154  35.746  58.778  0.00  0.00     0.149 C 
ATOM     15  C17 LG1 d5015      37.727  34.400  59.356  0.00  0.00     0.084 C 
ATOM     16  C18 LG1 d5015      38.541  33.268  58.683  0.00  0.00     0.022 C 
ATOM     17  O2  LG1 d5015      38.084  36.765  59.488  0.00  0.00    -0.293 OA
ATOM     18  C19 LG1 d5015      38.978  34.973  55.135  0.00  0.00     0.035 C 
ATOM     19  C20 LG1 d5015      40.066  33.998  54.646  0.00  0.00     0.010 C 
ATOM     20  C21 LG1 d5015      37.048  32.820  56.628  0.00  0.00     0.020 C 
ENDROOT
BRANCH   4  21
ATOM     21  C7  LG1 d5015      42.093  28.019  54.154  0.00  0.00     0.128 C 
ATOM     22  O1  LG1 d5015      41.760  27.498  53.111  0.00  0.00    -0.298 OA
ATOM     23  C8  LG1 d5015      42.545  27.182  55.301  0.00  0.00     0.091 C 
ENDBRANCH   4  21
TORSDOF 1
ENDMDL
