REMARK INTER + INTRA:          -6.018
REMARK INTER:                  -5.903
REMARK INTRA:                  -0.115
REMARK UNBOUND:                -0.205
REMARK  1 active torsions:
REMARK  status: ('A' for Active; 'I' for Inactive)
REMARK    1  A    between atoms: C7_7  and  C4_4 
ROOT
ATOM      1  C1  LG1 d5015      38.653  31.955  55.526  0.00  0.00    -0.004 C 
ATOM      2  C2  LG1 d5015      40.113  31.511  55.674  0.00  0.00    -0.001 C 
ATOM      3  C3  LG1 d5015      40.371  30.057  55.129  0.00  0.00    -0.030 C 
ATOM      4  C4  LG1 d5015      41.917  29.992  55.360  0.00  0.00     0.063 C 
ATOM      5  C5  LG1 d5015      42.445  31.420  54.979  0.00  0.00     0.013 C 
ATOM      6  C6  LG1 d5015      41.197  32.375  54.985  0.00  0.00     0.006 C 
ATOM      7  C9  LG1 d5015      40.058  29.901  53.599  0.00  0.00     0.016 C 
ATOM      8  C10 LG1 d5015      39.518  29.117  56.010  0.00  0.00     0.011 C 
ATOM      9  C11 LG1 d5015      38.013  29.499  55.944  0.00  0.00     0.007 C 
ATOM     10  C12 LG1 d5015      37.763  30.972  56.356  0.00  0.00     0.002 C 
ATOM     11  C13 LG1 d5015      36.233  31.336  56.299  0.00  0.00    -0.016 C 
ATOM     12  C14 LG1 d5015      36.060  32.854  56.713  0.00  0.00    -0.068 C 
ATOM     13  C15 LG1 d5015      35.158  33.279  57.579  0.00  0.00     0.053 C 
ATOM     14  C16 LG1 d5015      34.155  32.386  58.137  0.00  0.00     0.149 C 
ATOM     15  C17 LG1 d5015      34.062  30.942  57.653  0.00  0.00     0.084 C 
ATOM     16  C18 LG1 d5015      35.479  30.423  57.303  0.00  0.00     0.022 C 
ATOM     17  O2  LG1 d5015      33.320  32.809  58.957  0.00  0.00    -0.293 OA
ATOM     18  C19 LG1 d5015      37.015  33.869  56.095  0.00  0.00     0.035 C 
ATOM     19  C20 LG1 d5015      38.476  33.381  56.107  0.00  0.00     0.010 C 
ATOM     20  C21 LG1 d5015      35.632  31.202  54.847  0.00  0.00     0.020 C 
ENDROOT
BRANCH   4  21
ATOM     21  C7  LG1 d5015      42.628  28.825  54.654  0.00  0.00     0.128 C 
ATOM     22  O1  LG1 d5015      43.153  28.994  53.574  0.00  0.00    -0.298 OA
ATOM     23  C8  LG1 d5015      42.675  27.489  55.311  0.00  0.00     0.091 C 
ENDBRANCH   4  21
TORSDOF 1
ENDMDL
