MODEL 1
REMARK VINA RESULT:    -6.739      0.000      0.000
REMARK INTER + INTRA:          -7.338
REMARK INTER:                  -7.147
REMARK INTRA:                  -0.191
REMARK UNBOUND:                -0.205
REMARK  1 active torsions:
REMARK  status: ('A' for Active; 'I' for Inactive)
REMARK    1  A    between atoms: C7_7  and  C4_4 
ROOT
ATOM      1  C1  LG1 d5015      38.057  31.165  55.757  0.00  0.00    -0.004 C 
ATOM      2  C2  LG1 d5015      38.875  30.479  54.657  0.00  0.00    -0.001 C 
ATOM      3  C3  LG1 d5015      40.408  30.828  54.724  0.00  0.00    -0.030 C 
ATOM      4  C4  LG1 d5015      40.907  29.917  53.553  0.00  0.00     0.063 C 
ATOM      5  C5  LG1 d5015      40.072  28.594  53.685  0.00  0.00     0.013 C 
ATOM      6  C6  LG1 d5015      38.838  28.932  54.597  0.00  0.00     0.006 C 
ATOM      7  C9  LG1 d5015      41.090  30.384  56.066  0.00  0.00     0.016 C 
ATOM      8  C10 LG1 d5015      40.507  32.351  54.481  0.00  0.00     0.011 C 
ATOM      9  C11 LG1 d5015      39.689  33.142  55.540  0.00  0.00     0.007 C 
ATOM     10  C12 LG1 d5015      38.199  32.712  55.571  0.00  0.00     0.002 C 
ATOM     11  C13 LG1 d5015      37.384  33.533  56.637  0.00  0.00    -0.016 C 
ATOM     12  C14 LG1 d5015      35.884  33.028  56.623  0.00  0.00    -0.068 C 
ATOM     13  C15 LG1 d5015      34.838  33.834  56.594  0.00  0.00     0.053 C 
ATOM     14  C16 LG1 d5015      34.985  35.278  56.699  0.00  0.00     0.149 C 
ATOM     15  C17 LG1 d5015      36.361  35.891  56.945  0.00  0.00     0.084 C 
ATOM     16  C18 LG1 d5015      37.441  35.033  56.241  0.00  0.00     0.022 C 
ATOM     17  O2  LG1 d5015      33.985  36.017  56.663  0.00  0.00    -0.293 OA
ATOM     18  C19 LG1 d5015      35.645  31.522  56.610  0.00  0.00     0.035 C 
ATOM     19  C20 LG1 d5015      36.560  30.793  55.607  0.00  0.00     0.010 C 
ATOM     20  C21 LG1 d5015      37.913  33.313  58.106  0.00  0.00     0.020 C 
ENDROOT
BRANCH   4  21
ATOM     21  C7  LG1 d5015      42.431  29.722  53.489  0.00  0.00     0.128 C 
ATOM     22  O1  LG1 d5015      43.147  30.632  53.131  0.00  0.00    -0.298 OA
ATOM     23  C8  LG1 d5015      43.020  28.410  53.876  0.00  0.00     0.091 C 
ENDBRANCH   4  21
TORSDOF 1
ENDMDL
MODEL 2
REMARK VINA RESULT:    -6.165      1.235      7.277
REMARK INTER + INTRA:          -6.730
REMARK INTER:                  -6.526
REMARK INTRA:                  -0.204
REMARK UNBOUND:                -0.205
REMARK  1 active torsions:
REMARK  status: ('A' for Active; 'I' for Inactive)
REMARK    1  A    between atoms: C7_7  and  C4_4 
ROOT
ATOM      1  C1  LG1 d5015      38.251  33.023  56.154  0.00  0.00    -0.004 C 
ATOM      2  C2  LG1 d5015      37.081  33.982  55.907  0.00  0.00    -0.001 C 
ATOM      3  C3  LG1 d5015      35.697  33.395  56.374  0.00  0.00    -0.030 C 
ATOM      4  C4  LG1 d5015      34.798  34.636  56.057  0.00  0.00     0.063 C 
ATOM      5  C5  LG1 d5015      35.662  35.879  56.470  0.00  0.00     0.013 C 
ATOM      6  C6  LG1 d5015      37.148  35.377  56.574  0.00  0.00     0.006 C 
ATOM      7  C9  LG1 d5015      35.640  33.080  57.910  0.00  0.00     0.016 C 
ATOM      8  C10 LG1 d5015      35.452  32.144  55.501  0.00  0.00     0.011 C 
ATOM      9  C11 LG1 d5015      36.601  31.111  55.665  0.00  0.00     0.007 C 
ATOM     10  C12 LG1 d5015      37.988  31.718  55.331  0.00  0.00     0.002 C 
ATOM     11  C13 LG1 d5015      39.137  30.654  55.487  0.00  0.00    -0.016 C 
ATOM     12  C14 LG1 d5015      40.517  31.350  55.150  0.00  0.00    -0.068 C 
ATOM     13  C15 LG1 d5015      41.429  30.822  54.353  0.00  0.00     0.053 C 
ATOM     14  C16 LG1 d5015      41.284  29.479  53.812  0.00  0.00     0.149 C 
ATOM     15  C17 LG1 d5015      40.108  28.606  54.238  0.00  0.00     0.084 C 
ATOM     16  C18 LG1 d5015      38.867  29.498  54.487  0.00  0.00     0.022 C 
ATOM     17  O2  LG1 d5015      42.154  29.006  53.059  0.00  0.00    -0.293 OA
ATOM     18  C19 LG1 d5015      40.786  32.722  55.758  0.00  0.00     0.035 C 
ATOM     19  C20 LG1 d5015      39.569  33.660  55.646  0.00  0.00     0.010 C 
ATOM     20  C21 LG1 d5015      39.263  30.111  56.962  0.00  0.00     0.020 C 
ENDROOT
BRANCH   4  21
ATOM     21  C7  LG1 d5015      33.389  34.588  56.671  0.00  0.00     0.128 C 
ATOM     22  O1  LG1 d5015      32.583  33.770  56.283  0.00  0.00    -0.298 OA
ATOM     23  C8  LG1 d5015      33.026  35.549  57.750  0.00  0.00     0.091 C 
ENDBRANCH   4  21
TORSDOF 1
ENDMDL
MODEL 3
REMARK VINA RESULT:    -6.109      2.998      4.099
REMARK INTER + INTRA:          -6.671
REMARK INTER:                  -6.486
REMARK INTRA:                  -0.185
REMARK UNBOUND:                -0.205
REMARK  1 active torsions:
REMARK  status: ('A' for Active; 'I' for Inactive)
REMARK    1  A    between atoms: C7_7  and  C4_4 
ROOT
ATOM      1  C1  LG1 d5015      39.125  29.070  56.732  0.00  0.00    -0.004 C 
ATOM      2  C2  LG1 d5015      39.761  29.385  55.374  0.00  0.00    -0.001 C 
ATOM      3  C3  LG1 d5015      40.288  30.865  55.271  0.00  0.00    -0.030 C 
ATOM      4  C4  LG1 d5015      40.920  30.789  53.841  0.00  0.00     0.063 C 
ATOM      5  C5  LG1 d5015      41.593  29.373  53.769  0.00  0.00     0.013 C 
ATOM      6  C6  LG1 d5015      40.965  28.519  54.930  0.00  0.00     0.006 C 
ATOM      7  C9  LG1 d5015      41.402  31.204  56.323  0.00  0.00     0.016 C 
ATOM      8  C10 LG1 d5015      39.043  31.768  55.411  0.00  0.00     0.011 C 
ATOM      9  C11 LG1 d5015      38.310  31.510  56.756  0.00  0.00     0.007 C 
ATOM     10  C12 LG1 d5015      37.900  30.024  56.925  0.00  0.00     0.002 C 
ATOM     11  C13 LG1 d5015      37.145  29.784  58.285  0.00  0.00    -0.016 C 
ATOM     12  C14 LG1 d5015      36.777  28.248  58.393  0.00  0.00    -0.068 C 
ATOM     13  C15 LG1 d5015      35.585  27.803  58.744  0.00  0.00     0.053 C 
ATOM     14  C16 LG1 d5015      34.533  28.705  59.186  0.00  0.00     0.149 C 
ATOM     15  C17 LG1 d5015      34.821  30.195  59.347  0.00  0.00     0.084 C 
ATOM     16  C18 LG1 d5015      35.851  30.640  58.279  0.00  0.00     0.022 C 
ATOM     17  O2  LG1 d5015      33.415  28.262  59.506  0.00  0.00    -0.293 OA
ATOM     18  C19 LG1 d5015      37.860  27.234  58.037  0.00  0.00     0.035 C 
ATOM     19  C20 LG1 d5015      38.610  27.608  56.744  0.00  0.00     0.010 C 
ATOM     20  C21 LG1 d5015      38.040  30.115  59.540  0.00  0.00     0.020 C 
ENDROOT
BRANCH   4  21
ATOM     21  C7  LG1 d5015      41.839  31.967  53.477  0.00  0.00     0.128 C 
ATOM     22  O1  LG1 d5015      41.403  33.098  53.462  0.00  0.00    -0.298 OA
ATOM     23  C8  LG1 d5015      43.269  31.708  53.149  0.00  0.00     0.091 C 
ENDBRANCH   4  21
TORSDOF 1
ENDMDL
MODEL 4
REMARK VINA RESULT:    -5.976      1.816      6.932
REMARK INTER + INTRA:          -6.530
REMARK INTER:                  -6.326
REMARK INTRA:                  -0.203
REMARK UNBOUND:                -0.205
REMARK  1 active torsions:
REMARK  status: ('A' for Active; 'I' for Inactive)
REMARK    1  A    between atoms: C7_7  and  C4_4 
ROOT
ATOM      1  C1  LG1 d5015      38.757  31.679  55.379  0.00  0.00    -0.004 C 
ATOM      2  C2  LG1 d5015      38.187  32.447  56.576  0.00  0.00    -0.001 C 
ATOM      3  C3  LG1 d5015      38.748  33.914  56.689  0.00  0.00    -0.030 C 
ATOM      4  C4  LG1 d5015      37.909  34.391  57.921  0.00  0.00     0.063 C 
ATOM      5  C5  LG1 d5015      36.484  33.772  57.706  0.00  0.00     0.013 C 
ATOM      6  C6  LG1 d5015      36.650  32.620  56.649  0.00  0.00     0.006 C 
ATOM      7  C9  LG1 d5015      38.412  34.807  55.443  0.00  0.00     0.016 C 
ATOM      8  C10 LG1 d5015      40.268  33.768  56.924  0.00  0.00     0.011 C 
ATOM      9  C11 LG1 d5015      40.942  32.981  55.766  0.00  0.00     0.007 C 
ATOM     10  C12 LG1 d5015      40.308  31.580  55.562  0.00  0.00     0.002 C 
ATOM     11  C13 LG1 d5015      41.013  30.791  54.397  0.00  0.00    -0.016 C 
ATOM     12  C14 LG1 d5015      40.301  29.386  54.238  0.00  0.00    -0.068 C 
ATOM     13  C15 LG1 d5015      40.953  28.242  54.132  0.00  0.00     0.053 C 
ATOM     14  C16 LG1 d5015      42.403  28.197  54.029  0.00  0.00     0.149 C 
ATOM     15  C17 LG1 d5015      43.205  29.492  53.943  0.00  0.00     0.084 C 
ATOM     16  C18 LG1 d5015      42.503  30.590  54.780  0.00  0.00     0.022 C 
ATOM     17  O2  LG1 d5015      42.995  27.107  53.938  0.00  0.00    -0.293 OA
ATOM     18  C19 LG1 d5015      38.777  29.361  54.239  0.00  0.00     0.035 C 
ATOM     19  C20 LG1 d5015      38.178  30.242  55.353  0.00  0.00     0.010 C 
ATOM     20  C21 LG1 d5015      40.877  31.518  53.005  0.00  0.00     0.020 C 
ENDROOT
BRANCH   4  21
ATOM     21  C7  LG1 d5015      37.930  35.909  58.169  0.00  0.00     0.128 C 
ATOM     22  O1  LG1 d5015      38.960  36.458  58.498  0.00  0.00    -0.298 OA
ATOM     23  C8  LG1 d5015      36.679  36.698  57.995  0.00  0.00     0.091 C 
ENDBRANCH   4  21
TORSDOF 1
ENDMDL
MODEL 5
REMARK VINA RESULT:    -5.888      1.957      2.528
REMARK INTER + INTRA:          -6.436
REMARK INTER:                  -6.232
REMARK INTRA:                  -0.205
REMARK UNBOUND:                -0.205
REMARK  1 active torsions:
REMARK  status: ('A' for Active; 'I' for Inactive)
REMARK    1  A    between atoms: C7_7  and  C4_4 
ROOT
ATOM      1  C1  LG1 d5015      36.798  32.393  56.040  0.00  0.00    -0.004 C 
ATOM      2  C2  LG1 d5015      38.082  31.682  55.600  0.00  0.00    -0.001 C 
ATOM      3  C3  LG1 d5015      39.371  32.254  56.300  0.00  0.00    -0.030 C 
ATOM      4  C4  LG1 d5015      40.423  31.265  55.695  0.00  0.00     0.063 C 
ATOM      5  C5  LG1 d5015      39.707  29.869  55.679  0.00  0.00     0.013 C 
ATOM      6  C6  LG1 d5015      38.169  30.153  55.832  0.00  0.00     0.006 C 
ATOM      7  C9  LG1 d5015      39.348  32.109  57.862  0.00  0.00     0.016 C 
ATOM      8  C10 LG1 d5015      39.485  33.724  55.840  0.00  0.00     0.011 C 
ATOM      9  C11 LG1 d5015      38.215  34.532  56.224  0.00  0.00     0.007 C 
ATOM     10  C12 LG1 d5015      36.922  33.902  55.645  0.00  0.00     0.002 C 
ATOM     11  C13 LG1 d5015      35.648  34.741  56.030  0.00  0.00    -0.016 C 
ATOM     12  C14 LG1 d5015      34.372  34.029  55.423  0.00  0.00    -0.068 C 
ATOM     13  C15 LG1 d5015      33.424  34.664  54.757  0.00  0.00     0.053 C 
ATOM     14  C16 LG1 d5015      33.418  36.114  54.636  0.00  0.00     0.149 C 
ATOM     15  C17 LG1 d5015      34.467  36.947  55.365  0.00  0.00     0.084 C 
ATOM     16  C18 LG1 d5015      35.801  36.162  55.423  0.00  0.00     0.022 C 
ATOM     17  O2  LG1 d5015      32.518  36.689  53.998  0.00  0.00    -0.293 OA
ATOM     18  C19 LG1 d5015      34.257  32.518  55.593  0.00  0.00     0.035 C 
ATOM     19  C20 LG1 d5015      35.582  31.792  55.290  0.00  0.00     0.010 C 
ATOM     20  C21 LG1 d5015      35.417  34.812  57.588  0.00  0.00     0.020 C 
ENDROOT
BRANCH   4  21
ATOM     21  C7  LG1 d5015      41.799  31.284  56.382  0.00  0.00     0.128 C 
ATOM     22  O1  LG1 d5015      42.499  32.272  56.316  0.00  0.00    -0.298 OA
ATOM     23  C8  LG1 d5015      42.260  30.084  57.134  0.00  0.00     0.091 C 
ENDBRANCH   4  21
TORSDOF 1
ENDMDL
