REMARK INTER + INTRA:          -7.344
REMARK INTER:                  -7.150
REMARK INTRA:                  -0.193
REMARK UNBOUND:                -0.204
REMARK  1 active torsions:
REMARK  status: ('A' for Active; 'I' for Inactive)
REMARK    1  A    between atoms: C7_7  and  C4_4 
ROOT
ATOM      1  C1  LG1 d5015      38.052  31.159  55.761  0.00  0.00    -0.004 C 
ATOM      2  C2  LG1 d5015      38.871  30.475  54.662  0.00  0.00    -0.001 C 
ATOM      3  C3  LG1 d5015      40.400  30.848  54.714  0.00  0.00    -0.030 C 
ATOM      4  C4  LG1 d5015      40.903  29.933  53.548  0.00  0.00     0.063 C 
ATOM      5  C5  LG1 d5015      40.090  28.600  53.698  0.00  0.00     0.013 C 
ATOM      6  C6  LG1 d5015      38.857  28.928  54.617  0.00  0.00     0.006 C 
ATOM      7  C9  LG1 d5015      41.098  30.427  56.055  0.00  0.00     0.016 C 
ATOM      8  C10 LG1 d5015      40.474  32.370  54.456  0.00  0.00     0.011 C 
ATOM      9  C11 LG1 d5015      39.652  33.158  55.514  0.00  0.00     0.007 C 
ATOM     10  C12 LG1 d5015      38.169  32.706  55.560  0.00  0.00     0.002 C 
ATOM     11  C13 LG1 d5015      37.349  33.526  56.624  0.00  0.00    -0.016 C 
ATOM     12  C14 LG1 d5015      35.857  32.998  56.627  0.00  0.00    -0.068 C 
ATOM     13  C15 LG1 d5015      34.800  33.789  56.598  0.00  0.00     0.053 C 
ATOM     14  C16 LG1 d5015      34.926  35.235  56.688  0.00  0.00     0.149 C 
ATOM     15  C17 LG1 d5015      36.293  35.871  56.917  0.00  0.00     0.084 C 
ATOM     16  C18 LG1 d5015      37.382  35.023  56.214  0.00  0.00     0.022 C 
ATOM     17  O2  LG1 d5015      33.915  35.959  56.652  0.00  0.00    -0.293 OA
ATOM     18  C19 LG1 d5015      35.641  31.489  56.629  0.00  0.00     0.035 C 
ATOM     19  C20 LG1 d5015      36.559  30.764  55.626  0.00  0.00     0.010 C 
ATOM     20  C21 LG1 d5015      37.892  33.328  58.091  0.00  0.00     0.020 C 
ENDROOT
BRANCH   4  21
ATOM     21  C7  LG1 d5015      42.430  29.760  53.474  0.00  0.00     0.128 C 
ATOM     22  O1  LG1 d5015      43.131  30.681  53.113  0.00  0.00    -0.298 OA
ATOM     23  C8  LG1 d5015      43.039  28.456  53.857  0.00  0.00     0.091 C 
ENDBRANCH   4  21
TORSDOF 1
ENDMDL
