REMARK INTER + INTRA:          -6.701
REMARK INTER:                  -6.498
REMARK INTRA:                  -0.202
REMARK UNBOUND:                -0.134
REMARK  1 active torsions:
REMARK  status: ('A' for Active; 'I' for Inactive)
REMARK    1  A    between atoms: C7_7  and  C4_4 
ROOT
ATOM      1  C1  LG1 d5015      38.123  33.102  56.120  0.00  0.00    -0.004 C 
ATOM      2  C2  LG1 d5015      36.945  34.047  55.862  0.00  0.00    -0.001 C 
ATOM      3  C3  LG1 d5015      35.571  33.468  56.366  0.00  0.00    -0.030 C 
ATOM      4  C4  LG1 d5015      34.661  34.695  56.025  0.00  0.00     0.063 C 
ATOM      5  C5  LG1 d5015      35.524  35.954  56.389  0.00  0.00     0.013 C 
ATOM      6  C6  LG1 d5015      37.014  35.463  56.486  0.00  0.00     0.006 C 
ATOM      7  C9  LG1 d5015      35.537  33.198  57.911  0.00  0.00     0.016 C 
ATOM      8  C10 LG1 d5015      35.320  32.191  55.533  0.00  0.00     0.011 C 
ATOM      9  C11 LG1 d5015      36.476  31.168  55.711  0.00  0.00     0.007 C 
ATOM     10  C12 LG1 d5015      37.856  31.772  55.340  0.00  0.00     0.002 C 
ATOM     11  C13 LG1 d5015      39.012  30.719  55.511  0.00  0.00    -0.016 C 
ATOM     12  C14 LG1 d5015      40.384  31.411  55.133  0.00  0.00    -0.068 C 
ATOM     13  C15 LG1 d5015      41.287  30.865  54.339  0.00  0.00     0.053 C 
ATOM     14  C16 LG1 d5015      41.142  29.506  53.840  0.00  0.00     0.149 C 
ATOM     15  C17 LG1 d5015      39.976  28.640  54.308  0.00  0.00     0.084 C 
ATOM     16  C18 LG1 d5015      38.734  29.533  54.549  0.00  0.00     0.022 C 
ATOM     17  O2  LG1 d5015      42.003  29.015  53.088  0.00  0.00    -0.293 OA
ATOM     18  C19 LG1 d5015      40.654  32.802  55.697  0.00  0.00     0.035 C 
ATOM     19  C20 LG1 d5015      39.431  33.731  55.574  0.00  0.00     0.010 C 
ATOM     20  C21 LG1 d5015      39.162  30.220  56.999  0.00  0.00     0.020 C 
ENDROOT
BRANCH   4  21
ATOM     21  C7  LG1 d5015      33.261  34.658  56.661  0.00  0.00     0.128 C 
ATOM     22  O1  LG1 d5015      32.469  33.798  56.341  0.00  0.00    -0.298 OA
ATOM     23  C8  LG1 d5015      32.890  35.682  57.678  0.00  0.00     0.091 C 
ENDBRANCH   4  21
TORSDOF 1
ENDMDL
