MODEL 1
REMARK VINA RESULT:    -6.756      0.000      0.000
REMARK INTER + INTRA:          -7.355
REMARK INTER:                  -7.165
REMARK INTRA:                  -0.190
REMARK UNBOUND:                -0.205
REMARK  1 active torsions:
REMARK  status: ('A' for Active; 'I' for Inactive)
REMARK    1  A    between atoms: C7_7  and  C4_4 
ROOT
ATOM      1  C1  LG1 d5015      38.065  31.175  55.754  0.00  0.00    -0.004 C 
ATOM      2  C2  LG1 d5015      38.885  30.497  54.652  0.00  0.00    -0.001 C 
ATOM      3  C3  LG1 d5015      40.414  30.868  54.708  0.00  0.00    -0.030 C 
ATOM      4  C4  LG1 d5015      40.918  29.959  53.538  0.00  0.00     0.063 C 
ATOM      5  C5  LG1 d5015      40.104  28.626  53.679  0.00  0.00     0.013 C 
ATOM      6  C6  LG1 d5015      38.870  28.950  54.597  0.00  0.00     0.006 C 
ATOM      7  C9  LG1 d5015      41.111  30.439  56.048  0.00  0.00     0.016 C 
ATOM      8  C10 LG1 d5015      40.490  32.391  54.460  0.00  0.00     0.011 C 
ATOM      9  C11 LG1 d5015      39.667  33.174  55.520  0.00  0.00     0.007 C 
ATOM     10  C12 LG1 d5015      38.184  32.723  55.562  0.00  0.00     0.002 C 
ATOM     11  C13 LG1 d5015      37.363  33.537  56.630  0.00  0.00    -0.016 C 
ATOM     12  C14 LG1 d5015      35.871  33.010  56.627  0.00  0.00    -0.068 C 
ATOM     13  C15 LG1 d5015      34.814  33.802  56.601  0.00  0.00     0.053 C 
ATOM     14  C16 LG1 d5015      34.941  35.248  56.700  0.00  0.00     0.149 C 
ATOM     15  C17 LG1 d5015      36.309  35.881  56.936  0.00  0.00     0.084 C 
ATOM     16  C18 LG1 d5015      37.397  35.036  56.228  0.00  0.00     0.022 C 
ATOM     17  O2  LG1 d5015      33.930  35.972  56.667  0.00  0.00    -0.293 OA
ATOM     18  C19 LG1 d5015      35.653  31.501  56.621  0.00  0.00     0.035 C 
ATOM     19  C20 LG1 d5015      36.572  30.781  55.615  0.00  0.00     0.010 C 
ATOM     20  C21 LG1 d5015      37.904  33.329  58.096  0.00  0.00     0.020 C 
ENDROOT
BRANCH   4  21
ATOM     21  C7  LG1 d5015      42.445  29.786  53.465  0.00  0.00     0.128 C 
ATOM     22  O1  LG1 d5015      43.146  30.703  53.095  0.00  0.00    -0.298 OA
ATOM     23  C8  LG1 d5015      43.055  28.486  53.859  0.00  0.00     0.091 C 
ENDBRANCH   4  21
TORSDOF 1
ENDMDL
MODEL 2
REMARK VINA RESULT:    -6.167      1.226      7.275
REMARK INTER + INTRA:          -6.732
REMARK INTER:                  -6.528
REMARK INTRA:                  -0.204
REMARK UNBOUND:                -0.205
REMARK  1 active torsions:
REMARK  status: ('A' for Active; 'I' for Inactive)
REMARK    1  A    between atoms: C7_7  and  C4_4 
ROOT
ATOM      1  C1  LG1 d5015      38.253  33.016  56.149  0.00  0.00    -0.004 C 
ATOM      2  C2  LG1 d5015      37.081  33.973  55.910  0.00  0.00    -0.001 C 
ATOM      3  C3  LG1 d5015      35.699  33.379  56.372  0.00  0.00    -0.030 C 
ATOM      4  C4  LG1 d5015      34.796  34.619  56.064  0.00  0.00     0.063 C 
ATOM      5  C5  LG1 d5015      35.656  35.862  56.485  0.00  0.00     0.013 C 
ATOM      6  C6  LG1 d5015      37.143  35.365  56.585  0.00  0.00     0.006 C 
ATOM      7  C9  LG1 d5015      35.643  33.053  57.907  0.00  0.00     0.016 C 
ATOM      8  C10 LG1 d5015      35.457  32.133  55.491  0.00  0.00     0.011 C 
ATOM      9  C11 LG1 d5015      36.609  31.102  55.648  0.00  0.00     0.007 C 
ATOM     10  C12 LG1 d5015      37.995  31.717  55.318  0.00  0.00     0.002 C 
ATOM     11  C13 LG1 d5015      39.147  30.655  55.467  0.00  0.00    -0.016 C 
ATOM     12  C14 LG1 d5015      40.525  31.358  55.133  0.00  0.00    -0.068 C 
ATOM     13  C15 LG1 d5015      41.439  30.838  54.333  0.00  0.00     0.053 C 
ATOM     14  C16 LG1 d5015      41.298  29.499  53.783  0.00  0.00     0.149 C 
ATOM     15  C17 LG1 d5015      40.124  28.619  54.203  0.00  0.00     0.084 C 
ATOM     16  C18 LG1 d5015      38.880  29.505  54.459  0.00  0.00     0.022 C 
ATOM     17  O2  LG1 d5015      42.169  29.034  53.026  0.00  0.00    -0.293 OA
ATOM     18  C19 LG1 d5015      40.789  32.727  55.751  0.00  0.00     0.035 C 
ATOM     19  C20 LG1 d5015      39.569  33.662  55.645  0.00  0.00     0.010 C 
ATOM     20  C21 LG1 d5015      39.275  30.103  56.938  0.00  0.00     0.020 C 
ENDROOT
BRANCH   4  21
ATOM     21  C7  LG1 d5015      33.387  34.563  56.678  0.00  0.00     0.128 C 
ATOM     22  O1  LG1 d5015      32.581  33.747  56.283  0.00  0.00    -0.298 OA
ATOM     23  C8  LG1 d5015      33.022  35.512  57.767  0.00  0.00     0.091 C 
ENDBRANCH   4  21
TORSDOF 1
ENDMDL
MODEL 3
REMARK VINA RESULT:    -5.867      1.964      3.142
REMARK INTER + INTRA:          -6.414
REMARK INTER:                  -6.291
REMARK INTRA:                  -0.123
REMARK UNBOUND:                -0.205
REMARK  1 active torsions:
REMARK  status: ('A' for Active; 'I' for Inactive)
REMARK    1  A    between atoms: C7_7  and  C4_4 
ROOT
ATOM      1  C1  LG1 d5015      39.790  32.456  55.017  0.00  0.00    -0.004 C 
ATOM      2  C2  LG1 d5015      40.977  31.577  54.611  0.00  0.00    -0.001 C 
ATOM      3  C3  LG1 d5015      40.764  30.057  54.960  0.00  0.00    -0.030 C 
ATOM      4  C4  LG1 d5015      42.086  29.488  54.345  0.00  0.00     0.063 C 
ATOM      5  C5  LG1 d5015      42.293  30.292  53.014  0.00  0.00     0.013 C 
ATOM      6  C6  LG1 d5015      41.385  31.571  53.117  0.00  0.00     0.006 C 
ATOM      7  C9  LG1 d5015      39.527  29.418  54.237  0.00  0.00     0.016 C 
ATOM      8  C10 LG1 d5015      40.654  29.988  56.500  0.00  0.00     0.011 C 
ATOM      9  C11 LG1 d5015      39.482  30.869  57.018  0.00  0.00     0.007 C 
ATOM     10  C12 LG1 d5015      39.616  32.347  56.568  0.00  0.00     0.002 C 
ATOM     11  C13 LG1 d5015      38.431  33.226  57.115  0.00  0.00    -0.016 C 
ATOM     12  C14 LG1 d5015      38.626  34.710  56.601  0.00  0.00    -0.068 C 
ATOM     13  C15 LG1 d5015      38.520  35.774  57.376  0.00  0.00     0.053 C 
ATOM     14  C16 LG1 d5015      38.087  35.669  58.761  0.00  0.00     0.149 C 
ATOM     15  C17 LG1 d5015      37.648  34.322  59.325  0.00  0.00     0.084 C 
ATOM     16  C18 LG1 d5015      38.477  33.191  58.666  0.00  0.00     0.022 C 
ATOM     17  O2  LG1 d5015      38.002  36.686  59.473  0.00  0.00    -0.293 OA
ATOM     18  C19 LG1 d5015      38.988  34.909  55.133  0.00  0.00     0.035 C 
ATOM     19  C20 LG1 d5015      40.087  33.935  54.664  0.00  0.00     0.010 C 
ATOM     20  C21 LG1 d5015      37.027  32.751  56.577  0.00  0.00     0.020 C 
ENDROOT
BRANCH   4  21
ATOM     21  C7  LG1 d5015      42.123  27.958  54.194  0.00  0.00     0.128 C 
ATOM     22  O1  LG1 d5015      41.847  27.442  53.132  0.00  0.00    -0.298 OA
ATOM     23  C8  LG1 d5015      42.509  27.115  55.360  0.00  0.00     0.091 C 
ENDBRANCH   4  21
TORSDOF 1
ENDMDL
MODEL 4
REMARK VINA RESULT:    -5.495      1.981      7.087
REMARK INTER + INTRA:          -6.021
REMARK INTER:                  -5.816
REMARK INTRA:                  -0.205
REMARK UNBOUND:                -0.205
REMARK  1 active torsions:
REMARK  status: ('A' for Active; 'I' for Inactive)
REMARK    1  A    between atoms: C7_7  and  C4_4 
ROOT
ATOM      1  C1  LG1 d5015      37.634  29.749  56.699  0.00  0.00    -0.004 C 
ATOM      2  C2  LG1 d5015      36.718  30.794  57.344  0.00  0.00    -0.001 C 
ATOM      3  C3  LG1 d5015      36.346  31.971  56.367  0.00  0.00    -0.030 C 
ATOM      4  C4  LG1 d5015      35.374  32.758  57.308  0.00  0.00     0.063 C 
ATOM      5  C5  LG1 d5015      34.554  31.651  58.061  0.00  0.00     0.013 C 
ATOM      6  C6  LG1 d5015      35.355  30.309  57.893  0.00  0.00     0.006 C 
ATOM      7  C9  LG1 d5015      35.573  31.497  55.086  0.00  0.00     0.016 C 
ATOM      8  C10 LG1 d5015      37.677  32.679  56.030  0.00  0.00     0.011 C 
ATOM      9  C11 LG1 d5015      38.690  31.693  55.384  0.00  0.00     0.007 C 
ATOM     10  C12 LG1 d5015      38.965  30.461  56.286  0.00  0.00     0.002 C 
ATOM     11  C13 LG1 d5015      40.003  29.482  55.624  0.00  0.00    -0.016 C 
ATOM     12  C14 LG1 d5015      40.218  28.246  56.590  0.00  0.00    -0.068 C 
ATOM     13  C15 LG1 d5015      41.405  27.768  56.917  0.00  0.00     0.053 C 
ATOM     14  C16 LG1 d5015      42.625  28.272  56.306  0.00  0.00     0.149 C 
ATOM     15  C17 LG1 d5015      42.549  29.310  55.190  0.00  0.00     0.084 C 
ATOM     16  C18 LG1 d5015      41.341  30.247  55.437  0.00  0.00     0.022 C 
ATOM     17  O2  LG1 d5015      43.732  27.811  56.635  0.00  0.00    -0.293 OA
ATOM     18  C19 LG1 d5015      38.978  27.600  57.197  0.00  0.00     0.035 C 
ATOM     19  C20 LG1 d5015      37.974  28.642  57.728  0.00  0.00     0.010 C 
ATOM     20  C21 LG1 d5015      39.491  28.891  54.255  0.00  0.00     0.020 C 
ENDROOT
BRANCH   4  21
ATOM     21  C7  LG1 d5015      34.526  33.834  56.610  0.00  0.00     0.128 C 
ATOM     22  O1  LG1 d5015      35.058  34.813  56.130  0.00  0.00    -0.298 OA
ATOM     23  C8  LG1 d5015      33.050  33.662  56.520  0.00  0.00     0.091 C 
ENDBRANCH   4  21
TORSDOF 1
ENDMDL
MODEL 5
REMARK VINA RESULT:    -5.492      1.541      3.102
REMARK INTER + INTRA:          -6.018
REMARK INTER:                  -5.903
REMARK INTRA:                  -0.115
REMARK UNBOUND:                -0.205
REMARK  1 active torsions:
REMARK  status: ('A' for Active; 'I' for Inactive)
REMARK    1  A    between atoms: C7_7  and  C4_4 
ROOT
ATOM      1  C1  LG1 d5015      38.653  31.955  55.526  0.00  0.00    -0.004 C 
ATOM      2  C2  LG1 d5015      40.113  31.511  55.674  0.00  0.00    -0.001 C 
ATOM      3  C3  LG1 d5015      40.371  30.057  55.129  0.00  0.00    -0.030 C 
ATOM      4  C4  LG1 d5015      41.917  29.992  55.360  0.00  0.00     0.063 C 
ATOM      5  C5  LG1 d5015      42.445  31.420  54.979  0.00  0.00     0.013 C 
ATOM      6  C6  LG1 d5015      41.197  32.375  54.985  0.00  0.00     0.006 C 
ATOM      7  C9  LG1 d5015      40.058  29.901  53.599  0.00  0.00     0.016 C 
ATOM      8  C10 LG1 d5015      39.518  29.117  56.010  0.00  0.00     0.011 C 
ATOM      9  C11 LG1 d5015      38.013  29.499  55.944  0.00  0.00     0.007 C 
ATOM     10  C12 LG1 d5015      37.763  30.972  56.356  0.00  0.00     0.002 C 
ATOM     11  C13 LG1 d5015      36.233  31.336  56.299  0.00  0.00    -0.016 C 
ATOM     12  C14 LG1 d5015      36.060  32.854  56.713  0.00  0.00    -0.068 C 
ATOM     13  C15 LG1 d5015      35.158  33.279  57.579  0.00  0.00     0.053 C 
ATOM     14  C16 LG1 d5015      34.155  32.386  58.137  0.00  0.00     0.149 C 
ATOM     15  C17 LG1 d5015      34.062  30.942  57.653  0.00  0.00     0.084 C 
ATOM     16  C18 LG1 d5015      35.479  30.423  57.303  0.00  0.00     0.022 C 
ATOM     17  O2  LG1 d5015      33.320  32.809  58.957  0.00  0.00    -0.293 OA
ATOM     18  C19 LG1 d5015      37.015  33.869  56.095  0.00  0.00     0.035 C 
ATOM     19  C20 LG1 d5015      38.476  33.381  56.107  0.00  0.00     0.010 C 
ATOM     20  C21 LG1 d5015      35.632  31.202  54.847  0.00  0.00     0.020 C 
ENDROOT
BRANCH   4  21
ATOM     21  C7  LG1 d5015      42.628  28.825  54.654  0.00  0.00     0.128 C 
ATOM     22  O1  LG1 d5015      43.153  28.994  53.574  0.00  0.00    -0.298 OA
ATOM     23  C8  LG1 d5015      42.675  27.489  55.311  0.00  0.00     0.091 C 
ENDBRANCH   4  21
TORSDOF 1
ENDMDL
