REMARK INTER + INTRA:          -6.544
REMARK INTER:                  -6.342
REMARK INTRA:                  -0.202
REMARK UNBOUND:                -0.204
REMARK  1 active torsions:
REMARK  status: ('A' for Active; 'I' for Inactive)
REMARK    1  A    between atoms: C7_7  and  C4_4 
ROOT
ATOM      1  C1  LG1 d5015      38.771  31.770  55.367  0.00  0.00    -0.004 C 
ATOM      2  C2  LG1 d5015      38.258  32.565  56.573  0.00  0.00    -0.001 C 
ATOM      3  C3  LG1 d5015      38.875  34.010  56.664  0.00  0.00    -0.030 C 
ATOM      4  C4  LG1 d5015      38.083  34.524  57.912  0.00  0.00     0.063 C 
ATOM      5  C5  LG1 d5015      36.631  33.957  57.733  0.00  0.00     0.013 C 
ATOM      6  C6  LG1 d5015      36.731  32.795  56.679  0.00  0.00     0.006 C 
ATOM      7  C9  LG1 d5015      38.544  34.909  55.421  0.00  0.00     0.016 C 
ATOM      8  C10 LG1 d5015      40.394  33.809  56.865  0.00  0.00     0.011 C 
ATOM      9  C11 LG1 d5015      41.012  32.991  55.697  0.00  0.00     0.007 C 
ATOM     10  C12 LG1 d5015      40.321  31.614  55.515  0.00  0.00     0.002 C 
ATOM     11  C13 LG1 d5015      40.969  30.794  54.339  0.00  0.00    -0.016 C 
ATOM     12  C14 LG1 d5015      40.203  29.416  54.204  0.00  0.00    -0.068 C 
ATOM     13  C15 LG1 d5015      40.809  28.248  54.090  0.00  0.00     0.053 C 
ATOM     14  C16 LG1 d5015      42.254  28.148  53.955  0.00  0.00     0.149 C 
ATOM     15  C17 LG1 d5015      43.101  29.412  53.842  0.00  0.00     0.084 C 
ATOM     16  C18 LG1 d5015      42.460  30.540  54.689  0.00  0.00     0.022 C 
ATOM     17  O2  LG1 d5015      42.802  27.036  53.856  0.00  0.00    -0.293 OA
ATOM     18  C19 LG1 d5015      38.679  29.447  54.241  0.00  0.00     0.035 C 
ATOM     19  C20 LG1 d5015      38.139  30.355  55.362  0.00  0.00     0.010 C 
ATOM     20  C21 LG1 d5015      40.828  31.519  52.946  0.00  0.00     0.020 C 
ENDROOT
BRANCH   4  21
ATOM     21  C7  LG1 d5015      38.166  36.041  58.151  0.00  0.00     0.128 C 
ATOM     22  O1  LG1 d5015      39.228  36.558  58.422  0.00  0.00    -0.298 OA
ATOM     23  C8  LG1 d5015      36.933  36.869  58.039  0.00  0.00     0.091 C 
ENDBRANCH   4  21
TORSDOF 1
ENDMDL
