REMARK INTER + INTRA:          -6.535
REMARK INTER:                  -6.331
REMARK INTRA:                  -0.205
REMARK UNBOUND:                -0.134
REMARK  1 active torsions:
REMARK  status: ('A' for Active; 'I' for Inactive)
REMARK    1  A    between atoms: C7_7  and  C4_4 
ROOT
ATOM      1  C1  LG1 d5015      38.775  31.674  55.395  0.00  0.00    -0.004 C 
ATOM      2  C2  LG1 d5015      38.204  32.452  56.585  0.00  0.00    -0.001 C 
ATOM      3  C3  LG1 d5015      38.770  33.917  56.690  0.00  0.00    -0.030 C 
ATOM      4  C4  LG1 d5015      37.928  34.406  57.915  0.00  0.00     0.063 C 
ATOM      5  C5  LG1 d5015      36.501  33.790  57.699  0.00  0.00     0.013 C 
ATOM      6  C6  LG1 d5015      36.667  32.631  56.651  0.00  0.00     0.006 C 
ATOM      7  C9  LG1 d5015      38.442  34.803  55.436  0.00  0.00     0.016 C 
ATOM      8  C10 LG1 d5015      40.289  33.767  56.931  0.00  0.00     0.011 C 
ATOM      9  C11 LG1 d5015      40.964  32.969  55.781  0.00  0.00     0.007 C 
ATOM     10  C12 LG1 d5015      40.325  31.570  55.585  0.00  0.00     0.002 C 
ATOM     11  C13 LG1 d5015      41.031  30.770  54.428  0.00  0.00    -0.016 C 
ATOM     12  C14 LG1 d5015      40.315  29.367  54.276  0.00  0.00    -0.068 C 
ATOM     13  C15 LG1 d5015      40.963  28.220  54.181  0.00  0.00     0.053 C 
ATOM     14  C16 LG1 d5015      42.413  28.168  54.083  0.00  0.00     0.149 C 
ATOM     15  C17 LG1 d5015      43.220  29.460  53.990  0.00  0.00     0.084 C 
ATOM     16  C18 LG1 d5015      42.519  30.567  54.818  0.00  0.00     0.022 C 
ATOM     17  O2  LG1 d5015      43.001  27.075  54.001  0.00  0.00    -0.293 OA
ATOM     18  C19 LG1 d5015      38.790  29.347  54.272  0.00  0.00     0.035 C 
ATOM     19  C20 LG1 d5015      38.191  30.238  55.377  0.00  0.00     0.010 C 
ATOM     20  C21 LG1 d5015      40.903  31.488  53.030  0.00  0.00     0.020 C 
ENDROOT
BRANCH   4  21
ATOM     21  C7  LG1 d5015      37.954  35.925  58.153  0.00  0.00     0.128 C 
ATOM     22  O1  LG1 d5015      38.984  36.473  58.481  0.00  0.00    -0.298 OA
ATOM     23  C8  LG1 d5015      36.706  36.718  57.969  0.00  0.00     0.091 C 
ENDBRANCH   4  21
TORSDOF 1
ENDMDL
