MODEL 1
REMARK VINA RESULT:    -6.815      0.000      0.000
REMARK INTER + INTRA:          -7.348
REMARK INTER:                  -7.155
REMARK INTRA:                  -0.193
REMARK UNBOUND:                -0.134
REMARK  1 active torsions:
REMARK  status: ('A' for Active; 'I' for Inactive)
REMARK    1  A    between atoms: C7_7  and  C4_4 
ROOT
ATOM      1  C1  LG1 d5015      38.053  31.175  55.756  0.00  0.00    -0.004 C 
ATOM      2  C2  LG1 d5015      38.874  30.493  54.656  0.00  0.00    -0.001 C 
ATOM      3  C3  LG1 d5015      40.404  30.862  54.713  0.00  0.00    -0.030 C 
ATOM      4  C4  LG1 d5015      40.908  29.950  53.545  0.00  0.00     0.063 C 
ATOM      5  C5  LG1 d5015      40.090  28.618  53.688  0.00  0.00     0.013 C 
ATOM      6  C6  LG1 d5015      38.856  28.946  54.604  0.00  0.00     0.006 C 
ATOM      7  C9  LG1 d5015      41.098  30.434  56.054  0.00  0.00     0.016 C 
ATOM      8  C10 LG1 d5015      40.482  32.384  54.462  0.00  0.00     0.011 C 
ATOM      9  C11 LG1 d5015      39.659  33.171  55.520  0.00  0.00     0.007 C 
ATOM     10  C12 LG1 d5015      38.175  32.722  55.561  0.00  0.00     0.002 C 
ATOM     11  C13 LG1 d5015      37.355  33.540  56.626  0.00  0.00    -0.016 C 
ATOM     12  C14 LG1 d5015      35.862  33.015  56.623  0.00  0.00    -0.068 C 
ATOM     13  C15 LG1 d5015      34.806  33.809  56.595  0.00  0.00     0.053 C 
ATOM     14  C16 LG1 d5015      34.935  35.255  56.691  0.00  0.00     0.149 C 
ATOM     15  C17 LG1 d5015      36.304  35.886  56.927  0.00  0.00     0.084 C 
ATOM     16  C18 LG1 d5015      37.392  35.038  56.222  0.00  0.00     0.022 C 
ATOM     17  O2  LG1 d5015      33.926  35.981  56.655  0.00  0.00    -0.293 OA
ATOM     18  C19 LG1 d5015      35.641  31.507  56.619  0.00  0.00     0.035 C 
ATOM     19  C20 LG1 d5015      36.560  30.783  55.616  0.00  0.00     0.010 C 
ATOM     20  C21 LG1 d5015      37.894  33.334  58.094  0.00  0.00     0.020 C 
ENDROOT
BRANCH   4  21
ATOM     21  C7  LG1 d5015      42.434  29.774  53.474  0.00  0.00     0.128 C 
ATOM     22  O1  LG1 d5015      43.137  30.693  53.115  0.00  0.00    -0.298 OA
ATOM     23  C8  LG1 d5015      43.040  28.468  53.858  0.00  0.00     0.091 C 
ENDBRANCH   4  21
TORSDOF 1
ENDMDL
MODEL 2
REMARK VINA RESULT:    -6.203      1.256      7.296
REMARK INTER + INTRA:          -6.701
REMARK INTER:                  -6.498
REMARK INTRA:                  -0.202
REMARK UNBOUND:                -0.134
REMARK  1 active torsions:
REMARK  status: ('A' for Active; 'I' for Inactive)
REMARK    1  A    between atoms: C7_7  and  C4_4 
ROOT
ATOM      1  C1  LG1 d5015      38.123  33.102  56.120  0.00  0.00    -0.004 C 
ATOM      2  C2  LG1 d5015      36.945  34.047  55.862  0.00  0.00    -0.001 C 
ATOM      3  C3  LG1 d5015      35.571  33.468  56.366  0.00  0.00    -0.030 C 
ATOM      4  C4  LG1 d5015      34.661  34.695  56.025  0.00  0.00     0.063 C 
ATOM      5  C5  LG1 d5015      35.524  35.954  56.389  0.00  0.00     0.013 C 
ATOM      6  C6  LG1 d5015      37.014  35.463  56.486  0.00  0.00     0.006 C 
ATOM      7  C9  LG1 d5015      35.537  33.198  57.911  0.00  0.00     0.016 C 
ATOM      8  C10 LG1 d5015      35.320  32.191  55.533  0.00  0.00     0.011 C 
ATOM      9  C11 LG1 d5015      36.476  31.168  55.711  0.00  0.00     0.007 C 
ATOM     10  C12 LG1 d5015      37.856  31.772  55.340  0.00  0.00     0.002 C 
ATOM     11  C13 LG1 d5015      39.012  30.719  55.511  0.00  0.00    -0.016 C 
ATOM     12  C14 LG1 d5015      40.384  31.411  55.133  0.00  0.00    -0.068 C 
ATOM     13  C15 LG1 d5015      41.287  30.865  54.339  0.00  0.00     0.053 C 
ATOM     14  C16 LG1 d5015      41.142  29.506  53.840  0.00  0.00     0.149 C 
ATOM     15  C17 LG1 d5015      39.976  28.640  54.308  0.00  0.00     0.084 C 
ATOM     16  C18 LG1 d5015      38.734  29.533  54.549  0.00  0.00     0.022 C 
ATOM     17  O2  LG1 d5015      42.003  29.015  53.088  0.00  0.00    -0.293 OA
ATOM     18  C19 LG1 d5015      40.654  32.802  55.697  0.00  0.00     0.035 C 
ATOM     19  C20 LG1 d5015      39.431  33.731  55.574  0.00  0.00     0.010 C 
ATOM     20  C21 LG1 d5015      39.162  30.220  56.999  0.00  0.00     0.020 C 
ENDROOT
BRANCH   4  21
ATOM     21  C7  LG1 d5015      33.261  34.658  56.661  0.00  0.00     0.128 C 
ATOM     22  O1  LG1 d5015      32.469  33.798  56.341  0.00  0.00    -0.298 OA
ATOM     23  C8  LG1 d5015      32.890  35.682  57.678  0.00  0.00     0.091 C 
ENDBRANCH   4  21
TORSDOF 1
ENDMDL
MODEL 3
REMARK VINA RESULT:    -6.047      1.847      6.935
REMARK INTER + INTRA:          -6.535
REMARK INTER:                  -6.331
REMARK INTRA:                  -0.205
REMARK UNBOUND:                -0.134
REMARK  1 active torsions:
REMARK  status: ('A' for Active; 'I' for Inactive)
REMARK    1  A    between atoms: C7_7  and  C4_4 
ROOT
ATOM      1  C1  LG1 d5015      38.775  31.674  55.395  0.00  0.00    -0.004 C 
ATOM      2  C2  LG1 d5015      38.204  32.452  56.585  0.00  0.00    -0.001 C 
ATOM      3  C3  LG1 d5015      38.770  33.917  56.690  0.00  0.00    -0.030 C 
ATOM      4  C4  LG1 d5015      37.928  34.406  57.915  0.00  0.00     0.063 C 
ATOM      5  C5  LG1 d5015      36.501  33.790  57.699  0.00  0.00     0.013 C 
ATOM      6  C6  LG1 d5015      36.667  32.631  56.651  0.00  0.00     0.006 C 
ATOM      7  C9  LG1 d5015      38.442  34.803  55.436  0.00  0.00     0.016 C 
ATOM      8  C10 LG1 d5015      40.289  33.767  56.931  0.00  0.00     0.011 C 
ATOM      9  C11 LG1 d5015      40.964  32.969  55.781  0.00  0.00     0.007 C 
ATOM     10  C12 LG1 d5015      40.325  31.570  55.585  0.00  0.00     0.002 C 
ATOM     11  C13 LG1 d5015      41.031  30.770  54.428  0.00  0.00    -0.016 C 
ATOM     12  C14 LG1 d5015      40.315  29.367  54.276  0.00  0.00    -0.068 C 
ATOM     13  C15 LG1 d5015      40.963  28.220  54.181  0.00  0.00     0.053 C 
ATOM     14  C16 LG1 d5015      42.413  28.168  54.083  0.00  0.00     0.149 C 
ATOM     15  C17 LG1 d5015      43.220  29.460  53.990  0.00  0.00     0.084 C 
ATOM     16  C18 LG1 d5015      42.519  30.567  54.818  0.00  0.00     0.022 C 
ATOM     17  O2  LG1 d5015      43.001  27.075  54.001  0.00  0.00    -0.293 OA
ATOM     18  C19 LG1 d5015      38.790  29.347  54.272  0.00  0.00     0.035 C 
ATOM     19  C20 LG1 d5015      38.191  30.238  55.377  0.00  0.00     0.010 C 
ATOM     20  C21 LG1 d5015      40.903  31.488  53.030  0.00  0.00     0.020 C 
ENDROOT
BRANCH   4  21
ATOM     21  C7  LG1 d5015      37.954  35.925  58.153  0.00  0.00     0.128 C 
ATOM     22  O1  LG1 d5015      38.984  36.473  58.481  0.00  0.00    -0.298 OA
ATOM     23  C8  LG1 d5015      36.706  36.718  57.969  0.00  0.00     0.091 C 
ENDBRANCH   4  21
TORSDOF 1
ENDMDL
MODEL 4
REMARK VINA RESULT:    -5.944      1.978      3.155
REMARK INTER + INTRA:          -6.426
REMARK INTER:                  -6.316
REMARK INTRA:                  -0.111
REMARK UNBOUND:                -0.134
REMARK  1 active torsions:
REMARK  status: ('A' for Active; 'I' for Inactive)
REMARK    1  A    between atoms: C7_7  and  C4_4 
ROOT
ATOM      1  C1  LG1 d5015      39.777  32.519  55.010  0.00  0.00    -0.004 C 
ATOM      2  C2  LG1 d5015      40.956  31.639  54.582  0.00  0.00    -0.001 C 
ATOM      3  C3  LG1 d5015      40.750  30.120  54.941  0.00  0.00    -0.030 C 
ATOM      4  C4  LG1 d5015      42.058  29.549  54.300  0.00  0.00     0.063 C 
ATOM      5  C5  LG1 d5015      42.237  30.349  52.962  0.00  0.00     0.013 C 
ATOM      6  C6  LG1 d5015      41.331  31.628  53.080  0.00  0.00     0.006 C 
ATOM      7  C9  LG1 d5015      39.498  29.479  54.246  0.00  0.00     0.016 C 
ATOM      8  C10 LG1 d5015      40.672  30.057  56.483  0.00  0.00     0.011 C 
ATOM      9  C11 LG1 d5015      39.512  30.939  57.023  0.00  0.00     0.007 C 
ATOM     10  C12 LG1 d5015      39.636  32.416  56.565  0.00  0.00     0.002 C 
ATOM     11  C13 LG1 d5015      38.463  33.297  57.133  0.00  0.00    -0.016 C 
ATOM     12  C14 LG1 d5015      38.647  34.779  56.611  0.00  0.00    -0.068 C 
ATOM     13  C15 LG1 d5015      38.558  35.846  57.384  0.00  0.00     0.053 C 
ATOM     14  C16 LG1 d5015      38.154  35.746  58.778  0.00  0.00     0.149 C 
ATOM     15  C17 LG1 d5015      37.727  34.400  59.356  0.00  0.00     0.084 C 
ATOM     16  C18 LG1 d5015      38.541  33.268  58.683  0.00  0.00     0.022 C 
ATOM     17  O2  LG1 d5015      38.084  36.765  59.488  0.00  0.00    -0.293 OA
ATOM     18  C19 LG1 d5015      38.978  34.973  55.135  0.00  0.00     0.035 C 
ATOM     19  C20 LG1 d5015      40.066  33.998  54.646  0.00  0.00     0.010 C 
ATOM     20  C21 LG1 d5015      37.048  32.820  56.628  0.00  0.00     0.020 C 
ENDROOT
BRANCH   4  21
ATOM     21  C7  LG1 d5015      42.093  28.019  54.154  0.00  0.00     0.128 C 
ATOM     22  O1  LG1 d5015      41.760  27.498  53.111  0.00  0.00    -0.298 OA
ATOM     23  C8  LG1 d5015      42.545  27.182  55.301  0.00  0.00     0.091 C 
ENDBRANCH   4  21
TORSDOF 1
ENDMDL
MODEL 5
REMARK VINA RESULT:    -5.785      2.961      4.180
REMARK INTER + INTRA:          -6.258
REMARK INTER:                  -6.123
REMARK INTRA:                  -0.134
REMARK UNBOUND:                -0.134
REMARK  1 active torsions:
REMARK  status: ('A' for Active; 'I' for Inactive)
REMARK    1  A    between atoms: C7_7  and  C4_4 
ROOT
ATOM      1  C1  LG1 d5015      38.702  29.234  57.034  0.00  0.00    -0.004 C 
ATOM      2  C2  LG1 d5015      39.485  29.475  55.738  0.00  0.00    -0.001 C 
ATOM      3  C3  LG1 d5015      39.877  30.985  55.529  0.00  0.00    -0.030 C 
ATOM      4  C4  LG1 d5015      40.703  30.831  54.209  0.00  0.00     0.063 C 
ATOM      5  C5  LG1 d5015      41.512  29.498  54.389  0.00  0.00     0.013 C 
ATOM      6  C6  LG1 d5015      40.815  28.705  55.554  0.00  0.00     0.006 C 
ATOM      7  C9  LG1 d5015      40.799  31.551  56.666  0.00  0.00     0.016 C 
ATOM      8  C10 LG1 d5015      38.545  31.756  55.405  0.00  0.00     0.011 C 
ATOM      9  C11 LG1 d5015      37.662  31.559  56.669  0.00  0.00     0.007 C 
ATOM     10  C12 LG1 d5015      37.376  30.063  56.958  0.00  0.00     0.002 C 
ATOM     11  C13 LG1 d5015      36.469  29.884  58.231  0.00  0.00    -0.016 C 
ATOM     12  C14 LG1 d5015      36.238  28.337  58.472  0.00  0.00    -0.068 C 
ATOM     13  C15 LG1 d5015      35.056  27.802  58.721  0.00  0.00     0.053 C 
ATOM     14  C16 LG1 d5015      33.873  28.625  58.919  0.00  0.00     0.149 C 
ATOM     15  C17 LG1 d5015      33.993  30.146  58.938  0.00  0.00     0.084 C 
ATOM     16  C18 LG1 d5015      35.112  30.587  57.963  0.00  0.00     0.022 C 
ATOM     17  O2  LG1 d5015      32.769  28.097  59.145  0.00  0.00    -0.293 OA
ATOM     18  C19 LG1 d5015      37.450  27.416  58.376  0.00  0.00     0.035 C 
ATOM     19  C20 LG1 d5015      38.331  27.734  57.152  0.00  0.00     0.010 C 
ATOM     20  C21 LG1 d5015      37.148  30.439  59.541  0.00  0.00     0.020 C 
ENDROOT
BRANCH   4  21
ATOM     21  C7  LG1 d5015      41.547  32.058  53.827  0.00  0.00     0.128 C 
ATOM     22  O1  LG1 d5015      42.758  31.995  53.844  0.00  0.00    -0.298 OA
ATOM     23  C8  LG1 d5015      40.866  33.321  53.427  0.00  0.00     0.091 C 
ENDBRANCH   4  21
TORSDOF 1
ENDMDL
