REMARK INTER + INTRA:          -6.414
REMARK INTER:                  -6.291
REMARK INTRA:                  -0.123
REMARK UNBOUND:                -0.205
REMARK  1 active torsions:
REMARK  status: ('A' for Active; 'I' for Inactive)
REMARK    1  A    between atoms: C7_7  and  C4_4 
ROOT
ATOM      1  C1  LG1 d5015      39.790  32.456  55.017  0.00  0.00    -0.004 C 
ATOM      2  C2  LG1 d5015      40.977  31.577  54.611  0.00  0.00    -0.001 C 
ATOM      3  C3  LG1 d5015      40.764  30.057  54.960  0.00  0.00    -0.030 C 
ATOM      4  C4  LG1 d5015      42.086  29.488  54.345  0.00  0.00     0.063 C 
ATOM      5  C5  LG1 d5015      42.293  30.292  53.014  0.00  0.00     0.013 C 
ATOM      6  C6  LG1 d5015      41.385  31.571  53.117  0.00  0.00     0.006 C 
ATOM      7  C9  LG1 d5015      39.527  29.418  54.237  0.00  0.00     0.016 C 
ATOM      8  C10 LG1 d5015      40.654  29.988  56.500  0.00  0.00     0.011 C 
ATOM      9  C11 LG1 d5015      39.482  30.869  57.018  0.00  0.00     0.007 C 
ATOM     10  C12 LG1 d5015      39.616  32.347  56.568  0.00  0.00     0.002 C 
ATOM     11  C13 LG1 d5015      38.431  33.226  57.115  0.00  0.00    -0.016 C 
ATOM     12  C14 LG1 d5015      38.626  34.710  56.601  0.00  0.00    -0.068 C 
ATOM     13  C15 LG1 d5015      38.520  35.774  57.376  0.00  0.00     0.053 C 
ATOM     14  C16 LG1 d5015      38.087  35.669  58.761  0.00  0.00     0.149 C 
ATOM     15  C17 LG1 d5015      37.648  34.322  59.325  0.00  0.00     0.084 C 
ATOM     16  C18 LG1 d5015      38.477  33.191  58.666  0.00  0.00     0.022 C 
ATOM     17  O2  LG1 d5015      38.002  36.686  59.473  0.00  0.00    -0.293 OA
ATOM     18  C19 LG1 d5015      38.988  34.909  55.133  0.00  0.00     0.035 C 
ATOM     19  C20 LG1 d5015      40.087  33.935  54.664  0.00  0.00     0.010 C 
ATOM     20  C21 LG1 d5015      37.027  32.751  56.577  0.00  0.00     0.020 C 
ENDROOT
BRANCH   4  21
ATOM     21  C7  LG1 d5015      42.123  27.958  54.194  0.00  0.00     0.128 C 
ATOM     22  O1  LG1 d5015      41.847  27.442  53.132  0.00  0.00    -0.298 OA
ATOM     23  C8  LG1 d5015      42.509  27.115  55.360  0.00  0.00     0.091 C 
ENDBRANCH   4  21
TORSDOF 1
ENDMDL
