REMARK INTER + INTRA:          -6.768
REMARK INTER:                  -6.570
REMARK INTRA:                  -0.198
REMARK UNBOUND:                -0.204
REMARK  1 active torsions:
REMARK  status: ('A' for Active; 'I' for Inactive)
REMARK    1  A    between atoms: C7_7  and  C4_4 
ROOT
ATOM      1  C1  LG1 d5015      39.348  28.991  56.661  0.00  0.00    -0.004 C 
ATOM      2  C2  LG1 d5015      39.929  29.343  55.287  0.00  0.00    -0.001 C 
ATOM      3  C3  LG1 d5015      40.449  30.826  55.202  0.00  0.00    -0.030 C 
ATOM      4  C4  LG1 d5015      41.023  30.790  53.747  0.00  0.00     0.063 C 
ATOM      5  C5  LG1 d5015      41.694  29.378  53.610  0.00  0.00     0.013 C 
ATOM      6  C6  LG1 d5015      41.115  28.492  54.772  0.00  0.00     0.006 C 
ATOM      7  C9  LG1 d5015      41.604  31.140  56.217  0.00  0.00     0.016 C 
ATOM      8  C10 LG1 d5015      39.209  31.723  55.416  0.00  0.00     0.011 C 
ATOM      9  C11 LG1 d5015      38.532  31.427  56.783  0.00  0.00     0.007 C 
ATOM     10  C12 LG1 d5015      38.131  29.936  56.928  0.00  0.00     0.002 C 
ATOM     11  C13 LG1 d5015      37.432  29.659  58.311  0.00  0.00    -0.016 C 
ATOM     12  C14 LG1 d5015      37.071  28.120  58.393  0.00  0.00    -0.068 C 
ATOM     13  C15 LG1 d5015      35.894  27.663  58.780  0.00  0.00     0.053 C 
ATOM     14  C16 LG1 d5015      34.860  28.551  59.288  0.00  0.00     0.149 C 
ATOM     15  C17 LG1 d5015      35.153  30.037  59.477  0.00  0.00     0.084 C 
ATOM     16  C18 LG1 d5015      36.138  30.512  58.380  0.00  0.00     0.022 C 
ATOM     17  O2  LG1 d5015      33.757  28.097  59.641  0.00  0.00    -0.293 OA
ATOM     18  C19 LG1 d5015      38.139  27.119  57.967  0.00  0.00     0.035 C 
ATOM     19  C20 LG1 d5015      38.836  27.528  56.655  0.00  0.00     0.010 C 
ATOM     20  C21 LG1 d5015      38.377  29.959  59.537  0.00  0.00     0.020 C 
ENDROOT
BRANCH   4  21
ATOM     21  C7  LG1 d5015      41.925  31.979  53.376  0.00  0.00     0.128 C 
ATOM     22  O1  LG1 d5015      41.474  33.104  53.359  0.00  0.00    -0.298 OA
ATOM     23  C8  LG1 d5015      43.358  31.738  53.048  0.00  0.00     0.091 C 
ENDBRANCH   4  21
TORSDOF 1
ENDMDL
