REMARK INTER + INTRA:          -6.732
REMARK INTER:                  -6.528
REMARK INTRA:                  -0.204
REMARK UNBOUND:                -0.205
REMARK  1 active torsions:
REMARK  status: ('A' for Active; 'I' for Inactive)
REMARK    1  A    between atoms: C7_7  and  C4_4 
ROOT
ATOM      1  C1  LG1 d5015      38.253  33.016  56.149  0.00  0.00    -0.004 C 
ATOM      2  C2  LG1 d5015      37.081  33.973  55.910  0.00  0.00    -0.001 C 
ATOM      3  C3  LG1 d5015      35.699  33.379  56.372  0.00  0.00    -0.030 C 
ATOM      4  C4  LG1 d5015      34.796  34.619  56.064  0.00  0.00     0.063 C 
ATOM      5  C5  LG1 d5015      35.656  35.862  56.485  0.00  0.00     0.013 C 
ATOM      6  C6  LG1 d5015      37.143  35.365  56.585  0.00  0.00     0.006 C 
ATOM      7  C9  LG1 d5015      35.643  33.053  57.907  0.00  0.00     0.016 C 
ATOM      8  C10 LG1 d5015      35.457  32.133  55.491  0.00  0.00     0.011 C 
ATOM      9  C11 LG1 d5015      36.609  31.102  55.648  0.00  0.00     0.007 C 
ATOM     10  C12 LG1 d5015      37.995  31.717  55.318  0.00  0.00     0.002 C 
ATOM     11  C13 LG1 d5015      39.147  30.655  55.467  0.00  0.00    -0.016 C 
ATOM     12  C14 LG1 d5015      40.525  31.358  55.133  0.00  0.00    -0.068 C 
ATOM     13  C15 LG1 d5015      41.439  30.838  54.333  0.00  0.00     0.053 C 
ATOM     14  C16 LG1 d5015      41.298  29.499  53.783  0.00  0.00     0.149 C 
ATOM     15  C17 LG1 d5015      40.124  28.619  54.203  0.00  0.00     0.084 C 
ATOM     16  C18 LG1 d5015      38.880  29.505  54.459  0.00  0.00     0.022 C 
ATOM     17  O2  LG1 d5015      42.169  29.034  53.026  0.00  0.00    -0.293 OA
ATOM     18  C19 LG1 d5015      40.789  32.727  55.751  0.00  0.00     0.035 C 
ATOM     19  C20 LG1 d5015      39.569  33.662  55.645  0.00  0.00     0.010 C 
ATOM     20  C21 LG1 d5015      39.275  30.103  56.938  0.00  0.00     0.020 C 
ENDROOT
BRANCH   4  21
ATOM     21  C7  LG1 d5015      33.387  34.563  56.678  0.00  0.00     0.128 C 
ATOM     22  O1  LG1 d5015      32.581  33.747  56.283  0.00  0.00    -0.298 OA
ATOM     23  C8  LG1 d5015      33.022  35.512  57.767  0.00  0.00     0.091 C 
ENDBRANCH   4  21
TORSDOF 1
ENDMDL
