REMARK INTER + INTRA:          -7.355
REMARK INTER:                  -7.165
REMARK INTRA:                  -0.190
REMARK UNBOUND:                -0.205
REMARK  1 active torsions:
REMARK  status: ('A' for Active; 'I' for Inactive)
REMARK    1  A    between atoms: C7_7  and  C4_4 
ROOT
ATOM      1  C1  LG1 d5015      38.065  31.175  55.754  0.00  0.00    -0.004 C 
ATOM      2  C2  LG1 d5015      38.885  30.497  54.652  0.00  0.00    -0.001 C 
ATOM      3  C3  LG1 d5015      40.414  30.868  54.708  0.00  0.00    -0.030 C 
ATOM      4  C4  LG1 d5015      40.918  29.959  53.538  0.00  0.00     0.063 C 
ATOM      5  C5  LG1 d5015      40.104  28.626  53.679  0.00  0.00     0.013 C 
ATOM      6  C6  LG1 d5015      38.870  28.950  54.597  0.00  0.00     0.006 C 
ATOM      7  C9  LG1 d5015      41.111  30.439  56.048  0.00  0.00     0.016 C 
ATOM      8  C10 LG1 d5015      40.490  32.391  54.460  0.00  0.00     0.011 C 
ATOM      9  C11 LG1 d5015      39.667  33.174  55.520  0.00  0.00     0.007 C 
ATOM     10  C12 LG1 d5015      38.184  32.723  55.562  0.00  0.00     0.002 C 
ATOM     11  C13 LG1 d5015      37.363  33.537  56.630  0.00  0.00    -0.016 C 
ATOM     12  C14 LG1 d5015      35.871  33.010  56.627  0.00  0.00    -0.068 C 
ATOM     13  C15 LG1 d5015      34.814  33.802  56.601  0.00  0.00     0.053 C 
ATOM     14  C16 LG1 d5015      34.941  35.248  56.700  0.00  0.00     0.149 C 
ATOM     15  C17 LG1 d5015      36.309  35.881  56.936  0.00  0.00     0.084 C 
ATOM     16  C18 LG1 d5015      37.397  35.036  56.228  0.00  0.00     0.022 C 
ATOM     17  O2  LG1 d5015      33.930  35.972  56.667  0.00  0.00    -0.293 OA
ATOM     18  C19 LG1 d5015      35.653  31.501  56.621  0.00  0.00     0.035 C 
ATOM     19  C20 LG1 d5015      36.572  30.781  55.615  0.00  0.00     0.010 C 
ATOM     20  C21 LG1 d5015      37.904  33.329  58.096  0.00  0.00     0.020 C 
ENDROOT
BRANCH   4  21
ATOM     21  C7  LG1 d5015      42.445  29.786  53.465  0.00  0.00     0.128 C 
ATOM     22  O1  LG1 d5015      43.146  30.703  53.095  0.00  0.00    -0.298 OA
ATOM     23  C8  LG1 d5015      43.055  28.486  53.859  0.00  0.00     0.091 C 
ENDBRANCH   4  21
TORSDOF 1
ENDMDL
