REMARK INTER + INTRA:          -6.538
REMARK INTER:                  -6.334
REMARK INTRA:                  -0.204
REMARK UNBOUND:                -0.205
REMARK  1 active torsions:
REMARK  status: ('A' for Active; 'I' for Inactive)
REMARK    1  A    between atoms: C7_7  and  C4_4 
ROOT
ATOM      1  C1  LG1 d5015      38.777  31.680  55.416  0.00  0.00    -0.004 C 
ATOM      2  C2  LG1 d5015      38.211  32.455  56.611  0.00  0.00    -0.001 C 
ATOM      3  C3  LG1 d5015      38.780  33.918  56.719  0.00  0.00    -0.030 C 
ATOM      4  C4  LG1 d5015      37.944  34.404  57.950  0.00  0.00     0.063 C 
ATOM      5  C5  LG1 d5015      36.515  33.792  57.737  0.00  0.00     0.013 C 
ATOM      6  C6  LG1 d5015      36.675  32.636  56.683  0.00  0.00     0.006 C 
ATOM      7  C9  LG1 d5015      38.449  34.809  55.471  0.00  0.00     0.016 C 
ATOM      8  C10 LG1 d5015      40.299  33.765  56.955  0.00  0.00     0.011 C 
ATOM      9  C11 LG1 d5015      40.969  32.970  55.800  0.00  0.00     0.007 C 
ATOM     10  C12 LG1 d5015      40.327  31.573  55.600  0.00  0.00     0.002 C 
ATOM     11  C13 LG1 d5015      41.027  30.776  54.438  0.00  0.00    -0.016 C 
ATOM     12  C14 LG1 d5015      40.309  29.375  54.283  0.00  0.00    -0.068 C 
ATOM     13  C15 LG1 d5015      40.954  28.227  54.181  0.00  0.00     0.053 C 
ATOM     14  C16 LG1 d5015      42.404  28.173  54.078  0.00  0.00     0.149 C 
ATOM     15  C17 LG1 d5015      43.213  29.464  53.987  0.00  0.00     0.084 C 
ATOM     16  C18 LG1 d5015      42.517  30.569  54.821  0.00  0.00     0.022 C 
ATOM     17  O2  LG1 d5015      42.990  27.079  53.990  0.00  0.00    -0.293 OA
ATOM     18  C19 LG1 d5015      38.784  29.358  54.284  0.00  0.00     0.035 C 
ATOM     19  C20 LG1 d5015      38.190  30.245  55.395  0.00  0.00     0.010 C 
ATOM     20  C21 LG1 d5015      40.895  31.499  53.043  0.00  0.00     0.020 C 
ENDROOT
BRANCH   4  21
ATOM     21  C7  LG1 d5015      37.973  35.922  58.193  0.00  0.00     0.128 C 
ATOM     22  O1  LG1 d5015      39.006  36.469  58.517  0.00  0.00    -0.298 OA
ATOM     23  C8  LG1 d5015      36.725  36.717  58.021  0.00  0.00     0.091 C 
ENDBRANCH   4  21
TORSDOF 1
ENDMDL
