REMARK INTER + INTRA:          -7.338
REMARK INTER:                  -7.147
REMARK INTRA:                  -0.191
REMARK UNBOUND:                -0.205
REMARK  1 active torsions:
REMARK  status: ('A' for Active; 'I' for Inactive)
REMARK    1  A    between atoms: C7_7  and  C4_4 
ROOT
ATOM      1  C1  LG1 d5015      38.057  31.165  55.757  0.00  0.00    -0.004 C 
ATOM      2  C2  LG1 d5015      38.875  30.479  54.657  0.00  0.00    -0.001 C 
ATOM      3  C3  LG1 d5015      40.408  30.828  54.724  0.00  0.00    -0.030 C 
ATOM      4  C4  LG1 d5015      40.907  29.917  53.553  0.00  0.00     0.063 C 
ATOM      5  C5  LG1 d5015      40.072  28.594  53.685  0.00  0.00     0.013 C 
ATOM      6  C6  LG1 d5015      38.838  28.932  54.597  0.00  0.00     0.006 C 
ATOM      7  C9  LG1 d5015      41.090  30.384  56.066  0.00  0.00     0.016 C 
ATOM      8  C10 LG1 d5015      40.507  32.351  54.481  0.00  0.00     0.011 C 
ATOM      9  C11 LG1 d5015      39.689  33.142  55.540  0.00  0.00     0.007 C 
ATOM     10  C12 LG1 d5015      38.199  32.712  55.571  0.00  0.00     0.002 C 
ATOM     11  C13 LG1 d5015      37.384  33.533  56.637  0.00  0.00    -0.016 C 
ATOM     12  C14 LG1 d5015      35.884  33.028  56.623  0.00  0.00    -0.068 C 
ATOM     13  C15 LG1 d5015      34.838  33.834  56.594  0.00  0.00     0.053 C 
ATOM     14  C16 LG1 d5015      34.985  35.278  56.699  0.00  0.00     0.149 C 
ATOM     15  C17 LG1 d5015      36.361  35.891  56.945  0.00  0.00     0.084 C 
ATOM     16  C18 LG1 d5015      37.441  35.033  56.241  0.00  0.00     0.022 C 
ATOM     17  O2  LG1 d5015      33.985  36.017  56.663  0.00  0.00    -0.293 OA
ATOM     18  C19 LG1 d5015      35.645  31.522  56.610  0.00  0.00     0.035 C 
ATOM     19  C20 LG1 d5015      36.560  30.793  55.607  0.00  0.00     0.010 C 
ATOM     20  C21 LG1 d5015      37.913  33.313  58.106  0.00  0.00     0.020 C 
ENDROOT
BRANCH   4  21
ATOM     21  C7  LG1 d5015      42.431  29.722  53.489  0.00  0.00     0.128 C 
ATOM     22  O1  LG1 d5015      43.147  30.632  53.131  0.00  0.00    -0.298 OA
ATOM     23  C8  LG1 d5015      43.020  28.410  53.876  0.00  0.00     0.091 C 
ENDBRANCH   4  21
TORSDOF 1
ENDMDL
