REMARK INTER + INTRA:          -6.436
REMARK INTER:                  -6.232
REMARK INTRA:                  -0.205
REMARK UNBOUND:                -0.205
REMARK  1 active torsions:
REMARK  status: ('A' for Active; 'I' for Inactive)
REMARK    1  A    between atoms: C7_7  and  C4_4 
ROOT
ATOM      1  C1  LG1 d5015      36.798  32.393  56.040  0.00  0.00    -0.004 C 
ATOM      2  C2  LG1 d5015      38.082  31.682  55.600  0.00  0.00    -0.001 C 
ATOM      3  C3  LG1 d5015      39.371  32.254  56.300  0.00  0.00    -0.030 C 
ATOM      4  C4  LG1 d5015      40.423  31.265  55.695  0.00  0.00     0.063 C 
ATOM      5  C5  LG1 d5015      39.707  29.869  55.679  0.00  0.00     0.013 C 
ATOM      6  C6  LG1 d5015      38.169  30.153  55.832  0.00  0.00     0.006 C 
ATOM      7  C9  LG1 d5015      39.348  32.109  57.862  0.00  0.00     0.016 C 
ATOM      8  C10 LG1 d5015      39.485  33.724  55.840  0.00  0.00     0.011 C 
ATOM      9  C11 LG1 d5015      38.215  34.532  56.224  0.00  0.00     0.007 C 
ATOM     10  C12 LG1 d5015      36.922  33.902  55.645  0.00  0.00     0.002 C 
ATOM     11  C13 LG1 d5015      35.648  34.741  56.030  0.00  0.00    -0.016 C 
ATOM     12  C14 LG1 d5015      34.372  34.029  55.423  0.00  0.00    -0.068 C 
ATOM     13  C15 LG1 d5015      33.424  34.664  54.757  0.00  0.00     0.053 C 
ATOM     14  C16 LG1 d5015      33.418  36.114  54.636  0.00  0.00     0.149 C 
ATOM     15  C17 LG1 d5015      34.467  36.947  55.365  0.00  0.00     0.084 C 
ATOM     16  C18 LG1 d5015      35.801  36.162  55.423  0.00  0.00     0.022 C 
ATOM     17  O2  LG1 d5015      32.518  36.689  53.998  0.00  0.00    -0.293 OA
ATOM     18  C19 LG1 d5015      34.257  32.518  55.593  0.00  0.00     0.035 C 
ATOM     19  C20 LG1 d5015      35.582  31.792  55.290  0.00  0.00     0.010 C 
ATOM     20  C21 LG1 d5015      35.417  34.812  57.588  0.00  0.00     0.020 C 
ENDROOT
BRANCH   4  21
ATOM     21  C7  LG1 d5015      41.799  31.284  56.382  0.00  0.00     0.128 C 
ATOM     22  O1  LG1 d5015      42.499  32.272  56.316  0.00  0.00    -0.298 OA
ATOM     23  C8  LG1 d5015      42.260  30.084  57.134  0.00  0.00     0.091 C 
ENDBRANCH   4  21
TORSDOF 1
ENDMDL
