REMARK INTER + INTRA:          -5.751
REMARK INTER:                  -5.583
REMARK INTRA:                  -0.168
REMARK UNBOUND:                -0.080
REMARK  1 active torsions:
REMARK  status: ('A' for Active; 'I' for Inactive)
REMARK    1  A    between atoms: C10_13  and  C11_14 
ROOT
ATOM      1  C1  LG1 d5015      38.546  33.284  55.769  0.00  0.00     0.018 C 
ATOM      2  C2  LG1 d5015      39.810  32.721  55.232  0.00  0.00     0.193 C 
ATOM      3  C3  LG1 d5015      39.759  31.273  54.938  0.00  0.00     0.049 A 
ATOM      4  C4  LG1 d5015      40.913  30.599  54.534  0.00  0.00     0.037 A 
ATOM      5  C5  LG1 d5015      40.843  29.246  54.200  0.00  0.00     0.012 A 
ATOM      6  C6  LG1 d5015      39.624  28.570  54.259  0.00  0.00     0.022 A 
ATOM      7  C7  LG1 d5015      38.469  29.245  54.659  0.00  0.00     0.039 A 
ATOM      8  C8  LG1 d5015      38.538  30.592  55.015  0.00  0.00     0.083 A 
ATOM      9  O1  LG1 d5015      37.365  31.197  55.381  0.00  0.00    -0.346 OA
ATOM     10  C9  LG1 d5015      37.553  32.293  56.283  0.00  0.00     0.218 C 
ATOM     11 BR1  LG1 d5015      42.408  28.320  53.682  0.00  0.00    -0.051 Br
ATOM     12  O2  LG1 d5015      40.821  33.382  55.042  0.00  0.00    -0.287 OA
ATOM     13  C10 LG1 d5015      38.366  34.611  55.771  0.00  0.00     0.025 C 
ENDROOT
BRANCH  13  14
ATOM     14  C11 LG1 d5015      37.194  35.271  56.261  0.00  0.00    -0.029 A 
ATOM     15  C14 LG1 d5015      37.085  35.744  57.549  0.00  0.00     0.061 A 
ATOM     16  S1  LG1 d5015      35.569  36.485  57.835  0.00  0.00    -0.113 SA
ATOM     17  C13 LG1 d5015      35.052  36.173  56.234  0.00  0.00     0.050 A 
ATOM     18  C12 LG1 d5015      36.016  35.519  55.498  0.00  0.00     0.019 A 
ENDBRANCH  13  14
TORSDOF 1
ENDMDL
