REMARK INTER + INTRA:          -5.735
REMARK INTER:                  -5.566
REMARK INTRA:                  -0.169
REMARK UNBOUND:                -0.156
REMARK  1 active torsions:
REMARK  status: ('A' for Active; 'I' for Inactive)
REMARK    1  A    between atoms: C10_13  and  C11_14 
ROOT
ATOM      1  C1  LG1 d5015      38.553  33.286  55.801  0.00  0.00     0.018 C 
ATOM      2  C2  LG1 d5015      39.841  32.758  55.286  0.00  0.00     0.193 C 
ATOM      3  C3  LG1 d5015      39.833  31.311  54.984  0.00  0.00     0.049 A 
ATOM      4  C4  LG1 d5015      41.012  30.669  54.600  0.00  0.00     0.037 A 
ATOM      5  C5  LG1 d5015      40.983  29.317  54.258  0.00  0.00     0.012 A 
ATOM      6  C6  LG1 d5015      39.781  28.609  54.290  0.00  0.00     0.022 A 
ATOM      7  C7  LG1 d5015      38.602  29.252  54.670  0.00  0.00     0.039 A 
ATOM      8  C8  LG1 d5015      38.629  30.598  55.034  0.00  0.00     0.083 A 
ATOM      9  O1  LG1 d5015      37.433  31.171  55.381  0.00  0.00    -0.346 OA
ATOM     10  C9  LG1 d5015      37.576  32.267  56.291  0.00  0.00     0.218 C 
ATOM     11 BR1  LG1 d5015      42.582  28.433  53.766  0.00  0.00    -0.051 Br
ATOM     12  O2  LG1 d5015      40.838  33.446  55.120  0.00  0.00    -0.287 OA
ATOM     13  C10 LG1 d5015      38.339  34.607  55.806  0.00  0.00     0.025 C 
ENDROOT
BRANCH  13  14
ATOM     14  C11 LG1 d5015      37.140  35.234  56.276  0.00  0.00    -0.029 A 
ATOM     15  C14 LG1 d5015      36.987  35.678  57.570  0.00  0.00     0.061 A 
ATOM     16  S1  LG1 d5015      35.448  36.383  57.829  0.00  0.00    -0.113 SA
ATOM     17  C13 LG1 d5015      34.983  36.097  56.207  0.00  0.00     0.050 A 
ATOM     18  C12 LG1 d5015      35.980  35.478  55.486  0.00  0.00     0.019 A 
ENDBRANCH  13  14
TORSDOF 1
ENDMDL
