REMARK INTER + INTRA:          -5.738
REMARK INTER:                  -5.569
REMARK INTRA:                  -0.169
REMARK UNBOUND:                -0.141
REMARK  1 active torsions:
REMARK  status: ('A' for Active; 'I' for Inactive)
REMARK    1  A    between atoms: C10_13  and  C11_14 
ROOT
ATOM      1  C1  LG1 d5015      38.527  33.300  55.776  0.00  0.00     0.018 C 
ATOM      2  C2  LG1 d5015      39.815  32.783  55.251  0.00  0.00     0.193 C 
ATOM      3  C3  LG1 d5015      39.821  31.332  54.965  0.00  0.00     0.049 A 
ATOM      4  C4  LG1 d5015      41.004  30.701  54.573  0.00  0.00     0.037 A 
ATOM      5  C5  LG1 d5015      40.987  29.344  54.246  0.00  0.00     0.012 A 
ATOM      6  C6  LG1 d5015      39.795  28.622  54.301  0.00  0.00     0.022 A 
ATOM      7  C7  LG1 d5015      38.613  29.255  54.689  0.00  0.00     0.039 A 
ATOM      8  C8  LG1 d5015      38.627  30.605  55.038  0.00  0.00     0.083 A 
ATOM      9  O1  LG1 d5015      37.429  31.167  55.393  0.00  0.00    -0.346 OA
ATOM     10  C9  LG1 d5015      37.569  32.274  56.289  0.00  0.00     0.218 C 
ATOM     11 BR1  LG1 d5015      42.591  28.476  53.744  0.00  0.00    -0.051 Br
ATOM     12  O2  LG1 d5015      40.801  33.481  55.064  0.00  0.00    -0.287 OA
ATOM     13  C10 LG1 d5015      38.297  34.619  55.769  0.00  0.00     0.025 C 
ENDROOT
BRANCH  13  14
ATOM     14  C11 LG1 d5015      37.097  35.236  56.247  0.00  0.00    -0.029 A 
ATOM     15  C14 LG1 d5015      36.956  35.701  57.536  0.00  0.00     0.061 A 
ATOM     16  S1  LG1 d5015      35.411  36.387  57.806  0.00  0.00    -0.113 SA
ATOM     17  C13 LG1 d5015      34.925  36.064  56.197  0.00  0.00     0.050 A 
ATOM     18  C12 LG1 d5015      35.920  35.447  55.471  0.00  0.00     0.019 A 
ENDBRANCH  13  14
TORSDOF 1
ENDMDL
