REMARK INTER + INTRA:          -5.499
REMARK INTER:                  -5.398
REMARK INTRA:                  -0.101
REMARK UNBOUND:                -0.141
REMARK  1 active torsions:
REMARK  status: ('A' for Active; 'I' for Inactive)
REMARK    1  A    between atoms: C10_13  and  C11_14 
ROOT
ATOM      1  C1  LG1 d5015      38.680  31.062  55.229  0.00  0.00     0.018 C 
ATOM      2  C2  LG1 d5015      37.265  31.342  55.583  0.00  0.00     0.193 C 
ATOM      3  C3  LG1 d5015      37.011  32.722  56.047  0.00  0.00     0.049 A 
ATOM      4  C4  LG1 d5015      35.746  33.081  56.516  0.00  0.00     0.037 A 
ATOM      5  C5  LG1 d5015      35.499  34.401  56.896  0.00  0.00     0.012 A 
ATOM      6  C6  LG1 d5015      36.506  35.361  56.799  0.00  0.00     0.022 A 
ATOM      7  C7  LG1 d5015      37.770  35.002  56.327  0.00  0.00     0.039 A 
ATOM      8  C8  LG1 d5015      38.029  33.680  55.966  0.00  0.00     0.083 A 
ATOM      9  O1  LG1 d5015      39.285  33.400  55.495  0.00  0.00    -0.346 OA
ATOM     10  C9  LG1 d5015      39.686  32.046  55.730  0.00  0.00     0.218 C 
ATOM     11 BR1  LG1 d5015      33.796  34.888  57.561  0.00  0.00    -0.051 Br
ATOM     12  O2  LG1 d5015      36.370  30.513  55.504  0.00  0.00    -0.287 OA
ATOM     13  C10 LG1 d5015      38.974  29.974  54.508  0.00  0.00     0.025 C 
ENDROOT
BRANCH  13  14
ATOM     14  C11 LG1 d5015      40.296  29.600  54.105  0.00  0.00    -0.029 A 
ATOM     15  C14 LG1 d5015      40.977  28.542  54.665  0.00  0.00     0.061 A 
ATOM     16  S1  LG1 d5015      42.532  28.342  53.976  0.00  0.00    -0.113 SA
ATOM     17  C13 LG1 d5015      42.298  29.673  52.926  0.00  0.00     0.050 A 
ATOM     18  C12 LG1 d5015      41.061  30.255  53.097  0.00  0.00     0.019 A 
ENDBRANCH  13  14
TORSDOF 1
ENDMDL
