REMARK INTER + INTRA:          -6.098
REMARK INTER:                  -5.940
REMARK INTRA:                  -0.158
REMARK UNBOUND:                -0.156
REMARK  1 active torsions:
REMARK  status: ('A' for Active; 'I' for Inactive)
REMARK    1  A    between atoms: C10_13  and  C11_14 
ROOT
ATOM      1  C1  LG1 d5015      40.917  30.892  54.555  0.00  0.00     0.018 C 
ATOM      2  C2  LG1 d5015      40.765  29.520  54.010  0.00  0.00     0.193 C 
ATOM      3  C3  LG1 d5015      41.967  28.671  54.146  0.00  0.00     0.049 A 
ATOM      4  C4  LG1 d5015      41.993  27.397  53.574  0.00  0.00     0.037 A 
ATOM      5  C5  LG1 d5015      43.108  26.579  53.758  0.00  0.00     0.012 A 
ATOM      6  C6  LG1 d5015      44.190  27.025  54.518  0.00  0.00     0.022 A 
ATOM      7  C7  LG1 d5015      44.162  28.296  55.093  0.00  0.00     0.039 A 
ATOM      8  C8  LG1 d5015      43.059  29.127  54.894  0.00  0.00     0.083 A 
ATOM      9  O1  LG1 d5015      43.091  30.355  55.500  0.00  0.00    -0.346 OA
ATOM     10  C9  LG1 d5015      42.319  31.344  54.810  0.00  0.00     0.218 C 
ATOM     11 BR1  LG1 d5015      43.162  24.864  52.961  0.00  0.00    -0.051 Br
ATOM     12  O2  LG1 d5015      39.740  29.108  53.487  0.00  0.00    -0.287 OA
ATOM     13  C10 LG1 d5015      39.827  31.635  54.779  0.00  0.00     0.025 C 
ENDROOT
BRANCH  13  14
ATOM     14  C11 LG1 d5015      39.845  32.968  55.302  0.00  0.00    -0.029 A 
ATOM     15  C14 LG1 d5015      39.675  33.249  56.638  0.00  0.00     0.061 A 
ATOM     16  S1  LG1 d5015      39.748  34.930  56.956  0.00  0.00    -0.113 SA
ATOM     17  C13 LG1 d5015      40.008  35.287  55.303  0.00  0.00     0.050 A 
ATOM     18  C12 LG1 d5015      40.039  34.149  54.528  0.00  0.00     0.019 A 
ENDBRANCH  13  14
TORSDOF 1
ENDMDL
