REMARK INTER + INTRA:          -6.999
REMARK INTER:                  -6.453
REMARK INTRA:                  -0.546
REMARK UNBOUND:                -0.545
REMARK  2 active torsions:
REMARK  status: ('A' for Active; 'I' for Inactive)
REMARK    1  A    between atoms: C1_1  and  N1_15 
REMARK    2  A    between atoms: C7_9  and  C4_4 
ROOT
ATOM      1  C1  LG1 d5015      40.624  29.865  55.701  0.00  0.00     0.141 A 
ATOM      2  C2  LG1 d5015      41.679  29.520  56.546  0.00  0.00     0.187 A 
ATOM      3  C3  LG1 d5015      41.572  28.404  57.375  0.00  0.00     0.175 A 
ATOM      4  C4  LG1 d5015      40.409  27.634  57.362  0.00  0.00     0.131 A 
ATOM      5  C5  LG1 d5015      39.354  27.979  56.519  0.00  0.00     0.175 A 
ATOM      6  C6  LG1 d5015      39.461  29.094  55.689  0.00  0.00     0.187 A 
ATOM      7  F1  LG1 d5015      38.438  29.414  54.883  0.00  0.00    -0.200 F 
ATOM      8  F2  LG1 d5015      38.232  27.244  56.500  0.00  0.00    -0.202 F 
ATOM      9  F6  LG1 d5015      42.593  28.081  58.183  0.00  0.00    -0.202 F 
ATOM     10  F7  LG1 d5015      42.803  30.252  56.568  0.00  0.00    -0.200 F 
ENDROOT
BRANCH   1  11
ATOM     11  N1  LG1 d5015      40.729  30.972  54.878  0.00  0.00    -0.232 N 
ATOM     12  N2  LG1 d5015      40.292  32.168  55.308  0.00  0.00    -0.172 NA
ATOM     13  C10 LG1 d5015      40.547  32.973  54.275  0.00  0.00     0.053 A 
ATOM     14  C9  LG1 d5015      41.143  32.298  53.192  0.00  0.00     0.055 A 
ATOM     15  C11 LG1 d5015      40.205  34.404  54.360  0.00  0.00     0.072 C 
ATOM     16  C8  LG1 d5015      41.247  30.996  53.617  0.00  0.00     0.035 A 
ATOM     17  C12 LG1 d5015      41.790  29.805  52.935  0.00  0.00     0.070 C 
ENDBRANCH   1  11
BRANCH   4  18
ATOM     18  C7  LG1 d5015      40.295  26.441  58.251  0.00  0.00     0.423 C 
ATOM     19  F4  LG1 d5015      41.372  25.605  58.185  0.00  0.00    -0.166 F 
ATOM     20  F3  LG1 d5015      39.215  25.654  57.973  0.00  0.00    -0.166 F 
ATOM     21  F5  LG1 d5015      40.173  26.778  59.568  0.00  0.00    -0.166 F 
ENDBRANCH   4  18
TORSDOF 2
ENDMDL
