REMARK INTER + INTRA:          -6.780
REMARK INTER:                  -6.247
REMARK INTRA:                  -0.533
REMARK UNBOUND:                -0.545
REMARK  2 active torsions:
REMARK  status: ('A' for Active; 'I' for Inactive)
REMARK    1  A    between atoms: C1_1  and  N1_15 
REMARK    2  A    between atoms: C7_9  and  C4_4 
ROOT
ATOM      1  C1  LG1 d5015      41.152  28.946  56.395  0.00  0.00     0.141 A 
ATOM      2  C2  LG1 d5015      41.618  28.630  55.118  0.00  0.00     0.187 A 
ATOM      3  C3  LG1 d5015      41.696  29.621  54.140  0.00  0.00     0.175 A 
ATOM      4  C4  LG1 d5015      41.308  30.927  54.437  0.00  0.00     0.131 A 
ATOM      5  C5  LG1 d5015      40.841  31.243  55.713  0.00  0.00     0.175 A 
ATOM      6  C6  LG1 d5015      40.764  30.252  56.691  0.00  0.00     0.187 A 
ATOM      7  F1  LG1 d5015      40.314  30.570  57.914  0.00  0.00    -0.200 F 
ATOM      8  F2  LG1 d5015      40.465  32.496  56.007  0.00  0.00    -0.202 F 
ATOM      9  F6  LG1 d5015      42.146  29.307  52.916  0.00  0.00    -0.202 F 
ATOM     10  F7  LG1 d5015      41.995  27.378  54.819  0.00  0.00    -0.200 F 
ENDROOT
BRANCH   1  11
ATOM     11  N1  LG1 d5015      41.074  27.964  57.366  0.00  0.00    -0.232 N 
ATOM     12  N2  LG1 d5015      42.167  27.641  58.078  0.00  0.00    -0.172 NA
ATOM     13  C10 LG1 d5015      41.724  26.682  58.895  0.00  0.00     0.053 A 
ATOM     14  C9  LG1 d5015      40.359  26.394  58.706  0.00  0.00     0.055 A 
ATOM     15  C11 LG1 d5015      42.647  26.057  59.857  0.00  0.00     0.072 C 
ATOM     16  C8  LG1 d5015      39.965  27.246  57.703  0.00  0.00     0.035 A 
ATOM     17  C12 LG1 d5015      38.649  27.426  57.059  0.00  0.00     0.070 C 
ENDBRANCH   1  11
BRANCH   4  18
ATOM     18  C7  LG1 d5015      41.391  31.986  53.389  0.00  0.00     0.423 C 
ATOM     19  F4  LG1 d5015      40.905  33.196  53.795  0.00  0.00    -0.166 F 
ATOM     20  F3  LG1 d5015      40.695  31.686  52.253  0.00  0.00    -0.166 F 
ATOM     21  F5  LG1 d5015      42.672  32.223  52.983  0.00  0.00    -0.166 F 
ENDBRANCH   4  18
TORSDOF 2
ENDMDL
