MODEL 1
REMARK VINA RESULT:    -5.259      0.000      0.000
REMARK INTER + INTRA:          -5.736
REMARK INTER:                  -5.566
REMARK INTRA:                  -0.170
REMARK UNBOUND:                -0.169
REMARK  1 active torsions:
REMARK  status: ('A' for Active; 'I' for Inactive)
REMARK    1  A    between atoms: C10_13  and  C11_14 
ROOT
ATOM      1  C1  LG1 d5015      38.541  33.297  55.789  0.00  0.00     0.018 C 
ATOM      2  C2  LG1 d5015      39.824  32.761  55.271  0.00  0.00     0.193 C 
ATOM      3  C3  LG1 d5015      39.807  31.313  54.975  0.00  0.00     0.049 A 
ATOM      4  C4  LG1 d5015      40.982  30.663  54.588  0.00  0.00     0.037 A 
ATOM      5  C5  LG1 d5015      40.944  29.310  54.252  0.00  0.00     0.012 A 
ATOM      6  C6  LG1 d5015      39.739  28.608  54.291  0.00  0.00     0.022 A 
ATOM      7  C7  LG1 d5015      38.565  29.259  54.673  0.00  0.00     0.039 A 
ATOM      8  C8  LG1 d5015      38.600  30.606  55.032  0.00  0.00     0.083 A 
ATOM      9  O1  LG1 d5015      37.409  31.186  55.381  0.00  0.00    -0.346 OA
ATOM     10  C9  LG1 d5015      37.560  32.284  56.286  0.00  0.00     0.218 C 
ATOM     11 BR1  LG1 d5015      42.537  28.416  53.758  0.00  0.00    -0.051 Br
ATOM     12  O2  LG1 d5015      40.824  33.442  55.099  0.00  0.00    -0.287 OA
ATOM     13  C10 LG1 d5015      38.334  34.619  55.790  0.00  0.00     0.025 C 
ENDROOT
BRANCH  13  14
ATOM     14  C11 LG1 d5015      37.140  35.254  56.262  0.00  0.00    -0.029 A 
ATOM     15  C14 LG1 d5015      36.993  35.704  57.555  0.00  0.00     0.061 A 
ATOM     16  S1  LG1 d5015      35.460  36.418  57.817  0.00  0.00    -0.113 SA
ATOM     17  C13 LG1 d5015      34.987  36.127  56.197  0.00  0.00     0.050 A 
ATOM     18  C12 LG1 d5015      35.977  35.500  55.475  0.00  0.00     0.019 A 
ENDBRANCH  13  14
TORSDOF 1
ENDMDL
MODEL 2
REMARK VINA RESULT:    -5.009      3.977      6.879
REMARK INTER + INTRA:          -5.471
REMARK INTER:                  -5.316
REMARK INTRA:                  -0.155
REMARK UNBOUND:                -0.169
REMARK  1 active torsions:
REMARK  status: ('A' for Active; 'I' for Inactive)
REMARK    1  A    between atoms: C10_13  and  C11_14 
ROOT
ATOM      1  C1  LG1 d5015      38.665  31.035  55.327  0.00  0.00     0.018 C 
ATOM      2  C2  LG1 d5015      37.256  31.371  55.648  0.00  0.00     0.193 C 
ATOM      3  C3  LG1 d5015      37.042  32.770  56.073  0.00  0.00     0.049 A 
ATOM      4  C4  LG1 d5015      35.782  33.184  56.511  0.00  0.00     0.037 A 
ATOM      5  C5  LG1 d5015      35.573  34.521  56.853  0.00  0.00     0.012 A 
ATOM      6  C6  LG1 d5015      36.614  35.444  56.749  0.00  0.00     0.022 A 
ATOM      7  C7  LG1 d5015      37.872  35.030  56.308  0.00  0.00     0.039 A 
ATOM      8  C8  LG1 d5015      38.092  33.691  55.986  0.00  0.00     0.083 A 
ATOM      9  O1  LG1 d5015      39.345  33.357  55.544  0.00  0.00    -0.346 OA
ATOM     10  C9  LG1 d5015      39.697  31.997  55.820  0.00  0.00     0.218 C 
ATOM     11 BR1  LG1 d5015      33.877  35.081  57.476  0.00  0.00    -0.051 Br
ATOM     12  O2  LG1 d5015      36.334  30.571  55.575  0.00  0.00    -0.287 OA
ATOM     13  C10 LG1 d5015      38.935  29.919  54.637  0.00  0.00     0.025 C 
ENDROOT
BRANCH  13  14
ATOM     14  C11 LG1 d5015      40.250  29.491  54.267  0.00  0.00    -0.029 A 
ATOM     15  C14 LG1 d5015      40.949  28.533  54.968  0.00  0.00     0.061 A 
ATOM     16  S1  LG1 d5015      42.489  28.233  54.284  0.00  0.00    -0.113 SA
ATOM     17  C13 LG1 d5015      42.224  29.385  53.045  0.00  0.00     0.050 A 
ATOM     18  C12 LG1 d5015      40.989  29.984  53.152  0.00  0.00     0.019 A 
ENDBRANCH  13  14
TORSDOF 1
ENDMDL
MODEL 3
REMARK VINA RESULT:    -4.987      3.015      3.795
REMARK INTER + INTRA:          -5.448
REMARK INTER:                  -5.364
REMARK INTRA:                  -0.085
REMARK UNBOUND:                -0.169
REMARK  1 active torsions:
REMARK  status: ('A' for Active; 'I' for Inactive)
REMARK    1  A    between atoms: C10_13  and  C11_14 
ROOT
ATOM      1  C1  LG1 d5015      40.632  34.754  56.523  0.00  0.00     0.018 C 
ATOM      2  C2  LG1 d5015      40.861  33.299  56.699  0.00  0.00     0.193 C 
ATOM      3  C3  LG1 d5015      40.846  32.520  55.443  0.00  0.00     0.049 A 
ATOM      4  C4  LG1 d5015      40.937  31.127  55.482  0.00  0.00     0.037 A 
ATOM      5  C5  LG1 d5015      40.984  30.404  54.289  0.00  0.00     0.012 A 
ATOM      6  C6  LG1 d5015      40.950  31.068  53.062  0.00  0.00     0.022 A 
ATOM      7  C7  LG1 d5015      40.863  32.460  53.025  0.00  0.00     0.039 A 
ATOM      8  C8  LG1 d5015      40.794  33.187  54.213  0.00  0.00     0.083 A 
ATOM      9  O1  LG1 d5015      40.727  34.551  54.104  0.00  0.00    -0.346 OA
ATOM     10  C9  LG1 d5015      40.060  35.173  55.207  0.00  0.00     0.218 C 
ATOM     11 BR1  LG1 d5015      41.076  28.515  54.334  0.00  0.00    -0.051 Br
ATOM     12  O2  LG1 d5015      41.046  32.768  57.785  0.00  0.00    -0.287 OA
ATOM     13  C10 LG1 d5015      40.934  35.593  57.521  0.00  0.00     0.025 C 
ENDROOT
BRANCH  13  14
ATOM     14  C11 LG1 d5015      40.760  37.014  57.470  0.00  0.00    -0.029 A 
ATOM     15  C14 LG1 d5015      39.795  37.676  58.196  0.00  0.00     0.061 A 
ATOM     16  S1  LG1 d5015      39.835  39.365  57.927  0.00  0.00    -0.113 SA
ATOM     17  C13 LG1 d5015      41.146  39.216  56.836  0.00  0.00     0.050 A 
ATOM     18  C12 LG1 d5015      41.544  37.907  56.682  0.00  0.00     0.019 A 
ENDBRANCH  13  14
TORSDOF 1
ENDMDL
MODEL 4
REMARK VINA RESULT:    -4.681      4.537      6.272
REMARK INTER + INTRA:          -5.124
REMARK INTER:                  -4.963
REMARK INTRA:                  -0.162
REMARK UNBOUND:                -0.169
REMARK  1 active torsions:
REMARK  status: ('A' for Active; 'I' for Inactive)
REMARK    1  A    between atoms: C10_13  and  C11_14 
ROOT
ATOM      1  C1  LG1 d5015      38.850  30.554  55.592  0.00  0.00     0.018 C 
ATOM      2  C2  LG1 d5015      37.523  30.985  56.099  0.00  0.00     0.193 C 
ATOM      3  C3  LG1 d5015      36.920  30.068  57.089  0.00  0.00     0.049 A 
ATOM      4  C4  LG1 d5015      35.626  30.300  57.560  0.00  0.00     0.037 A 
ATOM      5  C5  LG1 d5015      35.087  29.464  58.540  0.00  0.00     0.012 A 
ATOM      6  C6  LG1 d5015      35.839  28.408  59.055  0.00  0.00     0.022 A 
ATOM      7  C7  LG1 d5015      37.133  28.180  58.586  0.00  0.00     0.039 A 
ATOM      8  C8  LG1 d5015      37.669  28.998  57.592  0.00  0.00     0.083 A 
ATOM      9  O1  LG1 d5015      38.951  28.728  57.191  0.00  0.00    -0.346 OA
ATOM     10  C9  LG1 d5015      39.215  29.127  55.841  0.00  0.00     0.218 C 
ATOM     11 BR1  LG1 d5015      33.323  29.754  59.160  0.00  0.00    -0.051 Br
ATOM     12  O2  LG1 d5015      36.959  32.008  55.740  0.00  0.00    -0.287 OA
ATOM     13  C10 LG1 d5015      39.626  31.436  54.951  0.00  0.00     0.025 C 
ENDROOT
BRANCH  13  14
ATOM     14  C11 LG1 d5015      40.922  31.141  54.418  0.00  0.00    -0.029 A 
ATOM     15  C14 LG1 d5015      42.088  31.383  55.109  0.00  0.00     0.061 A 
ATOM     16  S1  LG1 d5015      43.473  30.925  54.214  0.00  0.00    -0.113 SA
ATOM     17  C13 LG1 d5015      42.515  30.400  52.896  0.00  0.00     0.050 A 
ATOM     18  C12 LG1 d5015      41.170  30.571  53.135  0.00  0.00     0.019 A 
ENDBRANCH  13  14
TORSDOF 1
ENDMDL
MODEL 5
REMARK VINA RESULT:    -4.641      3.924      4.555
REMARK INTER + INTRA:          -5.082
REMARK INTER:                  -4.913
REMARK INTRA:                  -0.169
REMARK UNBOUND:                -0.169
REMARK  1 active torsions:
REMARK  status: ('A' for Active; 'I' for Inactive)
REMARK    1  A    between atoms: C10_13  and  C11_14 
ROOT
ATOM      1  C1  LG1 d5015      38.512  29.987  57.184  0.00  0.00     0.018 C 
ATOM      2  C2  LG1 d5015      39.558  30.916  56.687  0.00  0.00     0.193 C 
ATOM      3  C3  LG1 d5015      40.272  30.445  55.482  0.00  0.00     0.049 A 
ATOM      4  C4  LG1 d5015      41.354  31.172  54.980  0.00  0.00     0.037 A 
ATOM      5  C5  LG1 d5015      41.984  30.753  53.808  0.00  0.00     0.012 A 
ATOM      6  C6  LG1 d5015      41.531  29.619  53.132  0.00  0.00     0.022 A 
ATOM      7  C7  LG1 d5015      40.447  28.895  53.632  0.00  0.00     0.039 A 
ATOM      8  C8  LG1 d5015      39.828  29.296  54.816  0.00  0.00     0.083 A 
ATOM      9  O1  LG1 d5015      38.760  28.550  55.241  0.00  0.00    -0.346 OA
ATOM     10  C9  LG1 d5015      38.574  28.589  56.660  0.00  0.00     0.218 C 
ATOM     11 BR1  LG1 d5015      43.469  31.715  53.139  0.00  0.00    -0.051 Br
ATOM     12  O2  LG1 d5015      39.823  31.985  57.217  0.00  0.00    -0.287 OA
ATOM     13  C10 LG1 d5015      37.597  30.432  58.055  0.00  0.00     0.025 C 
ENDROOT
BRANCH  13  14
ATOM     14  C11 LG1 d5015      36.542  29.635  58.603  0.00  0.00    -0.029 A 
ATOM     15  C14 LG1 d5015      36.671  28.930  59.779  0.00  0.00     0.061 A 
ATOM     16  S1  LG1 d5015      35.242  28.076  60.176  0.00  0.00    -0.113 SA
ATOM     17  C13 LG1 d5015      34.446  28.646  58.772  0.00  0.00     0.050 A 
ATOM     18  C12 LG1 d5015      35.252  29.470  58.020  0.00  0.00     0.019 A 
ENDBRANCH  13  14
TORSDOF 1
ENDMDL
