MODEL 1
REMARK VINA RESULT:    -5.621      0.000      0.000
REMARK INTER + INTRA:          -6.085
REMARK INTER:                  -5.966
REMARK INTRA:                  -0.119
REMARK UNBOUND:                -0.135
REMARK  1 active torsions:
REMARK  status: ('A' for Active; 'I' for Inactive)
REMARK    1  A    between atoms: C10_13  and  C11_14 
ROOT
ATOM      1  C1  LG1 d5015      40.851  30.866  54.601  0.00  0.00     0.018 C 
ATOM      2  C2  LG1 d5015      40.708  29.491  54.059  0.00  0.00     0.193 C 
ATOM      3  C3  LG1 d5015      41.922  28.656  54.181  0.00  0.00     0.049 A 
ATOM      4  C4  LG1 d5015      41.955  27.382  53.611  0.00  0.00     0.037 A 
ATOM      5  C5  LG1 d5015      43.082  26.577  53.782  0.00  0.00     0.012 A 
ATOM      6  C6  LG1 d5015      44.168  27.037  54.528  0.00  0.00     0.022 A 
ATOM      7  C7  LG1 d5015      44.132  28.310  55.101  0.00  0.00     0.039 A 
ATOM      8  C8  LG1 d5015      43.018  29.127  54.915  0.00  0.00     0.083 A 
ATOM      9  O1  LG1 d5015      43.042  30.356  55.519  0.00  0.00    -0.346 OA
ATOM     10  C9  LG1 d5015      42.250  31.335  54.837  0.00  0.00     0.218 C 
ATOM     11 BR1  LG1 d5015      43.147  24.863  52.987  0.00  0.00    -0.051 Br
ATOM     12  O2  LG1 d5015      39.681  29.066  53.550  0.00  0.00    -0.287 OA
ATOM     13  C10 LG1 d5015      39.754  31.596  54.837  0.00  0.00     0.025 C 
ENDROOT
BRANCH  13  14
ATOM     14  C11 LG1 d5015      39.763  32.930  55.358  0.00  0.00    -0.029 A 
ATOM     15  C14 LG1 d5015      39.469  33.222  56.671  0.00  0.00     0.061 A 
ATOM     16  S1  LG1 d5015      39.565  34.901  56.992  0.00  0.00    -0.113 SA
ATOM     17  C13 LG1 d5015      40.000  35.242  55.373  0.00  0.00     0.050 A 
ATOM     18  C12 LG1 d5015      40.072  34.101  54.605  0.00  0.00     0.019 A 
ENDBRANCH  13  14
TORSDOF 1
ENDMDL
MODEL 2
REMARK VINA RESULT:    -5.265      2.863      4.313
REMARK INTER + INTRA:          -5.708
REMARK INTER:                  -5.540
REMARK INTRA:                  -0.169
REMARK UNBOUND:                -0.135
REMARK  1 active torsions:
REMARK  status: ('A' for Active; 'I' for Inactive)
REMARK    1  A    between atoms: C10_13  and  C11_14 
ROOT
ATOM      1  C1  LG1 d5015      38.534  33.287  55.767  0.00  0.00     0.018 C 
ATOM      2  C2  LG1 d5015      39.840  32.789  55.270  0.00  0.00     0.193 C 
ATOM      3  C3  LG1 d5015      39.875  31.339  54.988  0.00  0.00     0.049 A 
ATOM      4  C4  LG1 d5015      41.075  30.725  54.622  0.00  0.00     0.037 A 
ATOM      5  C5  LG1 d5015      41.087  29.368  54.299  0.00  0.00     0.012 A 
ATOM      6  C6  LG1 d5015      39.906  28.627  54.331  0.00  0.00     0.022 A 
ATOM      7  C7  LG1 d5015      38.706  29.241  54.693  0.00  0.00     0.039 A 
ATOM      8  C8  LG1 d5015      38.692  30.593  55.039  0.00  0.00     0.083 A 
ATOM      9  O1  LG1 d5015      37.478  31.136  55.367  0.00  0.00    -0.346 OA
ATOM     10  C9  LG1 d5015      37.582  32.248  56.263  0.00  0.00     0.218 C 
ATOM     11 BR1  LG1 d5015      42.715  28.524  53.833  0.00  0.00    -0.051 Br
ATOM     12  O2  LG1 d5015      40.819  33.503  55.102  0.00  0.00    -0.287 OA
ATOM     13  C10 LG1 d5015      38.283  34.602  55.753  0.00  0.00     0.025 C 
ENDROOT
BRANCH  13  14
ATOM     14  C11 LG1 d5015      37.063  35.201  56.204  0.00  0.00    -0.029 A 
ATOM     15  C14 LG1 d5015      36.891  35.674  57.485  0.00  0.00     0.061 A 
ATOM     16  S1  LG1 d5015      35.330  36.335  57.723  0.00  0.00    -0.113 SA
ATOM     17  C13 LG1 d5015      34.879  35.990  56.109  0.00  0.00     0.050 A 
ATOM     18  C12 LG1 d5015      35.896  35.385  55.406  0.00  0.00     0.019 A 
ENDBRANCH  13  14
TORSDOF 1
ENDMDL
MODEL 3
REMARK VINA RESULT:    -5.030      4.653      7.351
REMARK INTER + INTRA:          -5.459
REMARK INTER:                  -5.306
REMARK INTRA:                  -0.154
REMARK UNBOUND:                -0.135
REMARK  1 active torsions:
REMARK  status: ('A' for Active; 'I' for Inactive)
REMARK    1  A    between atoms: C10_13  and  C11_14 
ROOT
ATOM      1  C1  LG1 d5015      38.632  31.042  55.336  0.00  0.00     0.018 C 
ATOM      2  C2  LG1 d5015      37.220  31.374  55.652  0.00  0.00     0.193 C 
ATOM      3  C3  LG1 d5015      37.002  32.769  56.089  0.00  0.00     0.049 A 
ATOM      4  C4  LG1 d5015      35.739  33.178  56.523  0.00  0.00     0.037 A 
ATOM      5  C5  LG1 d5015      35.528  34.511  56.876  0.00  0.00     0.012 A 
ATOM      6  C6  LG1 d5015      36.569  35.436  56.788  0.00  0.00     0.022 A 
ATOM      7  C7  LG1 d5015      37.830  35.027  56.351  0.00  0.00     0.039 A 
ATOM      8  C8  LG1 d5015      38.053  33.692  56.017  0.00  0.00     0.083 A 
ATOM      9  O1  LG1 d5015      39.309  33.363  55.580  0.00  0.00    -0.346 OA
ATOM     10  C9  LG1 d5015      39.660  32.000  55.844  0.00  0.00     0.218 C 
ATOM     11 BR1  LG1 d5015      33.828  35.065  57.494  0.00  0.00    -0.051 Br
ATOM     12  O2  LG1 d5015      36.300  30.574  55.566  0.00  0.00    -0.287 OA
ATOM     13  C10 LG1 d5015      38.906  29.934  54.638  0.00  0.00     0.025 C 
ENDROOT
BRANCH  13  14
ATOM     14  C11 LG1 d5015      40.224  29.509  54.272  0.00  0.00    -0.029 A 
ATOM     15  C14 LG1 d5015      40.916  28.540  54.962  0.00  0.00     0.061 A 
ATOM     16  S1  LG1 d5015      42.460  28.248  54.286  0.00  0.00    -0.113 SA
ATOM     17  C13 LG1 d5015      42.208  29.421  53.065  0.00  0.00     0.050 A 
ATOM     18  C12 LG1 d5015      40.973  30.020  53.172  0.00  0.00     0.019 A 
ENDBRANCH  13  14
TORSDOF 1
ENDMDL
MODEL 4
REMARK VINA RESULT:    -4.679      3.276      3.926
REMARK INTER + INTRA:          -5.087
REMARK INTER:                  -4.963
REMARK INTRA:                  -0.124
REMARK UNBOUND:                -0.135
REMARK  1 active torsions:
REMARK  status: ('A' for Active; 'I' for Inactive)
REMARK    1  A    between atoms: C10_13  and  C11_14 
ROOT
ATOM      1  C1  LG1 d5015      37.951  30.739  55.321  0.00  0.00     0.018 C 
ATOM      2  C2  LG1 d5015      38.902  29.687  54.883  0.00  0.00     0.193 C 
ATOM      3  C3  LG1 d5015      40.306  29.927  55.281  0.00  0.00     0.049 A 
ATOM      4  C4  LG1 d5015      41.315  29.070  54.835  0.00  0.00     0.037 A 
ATOM      5  C5  LG1 d5015      42.628  29.268  55.265  0.00  0.00     0.012 A 
ATOM      6  C6  LG1 d5015      42.932  30.309  56.142  0.00  0.00     0.022 A 
ATOM      7  C7  LG1 d5015      41.922  31.162  56.590  0.00  0.00     0.039 A 
ATOM      8  C8  LG1 d5015      40.611  30.983  56.147  0.00  0.00     0.083 A 
ATOM      9  O1  LG1 d5015      39.667  31.845  56.639  0.00  0.00    -0.346 OA
ATOM     10  C9  LG1 d5015      38.560  32.034  55.752  0.00  0.00     0.218 C 
ATOM     11 BR1  LG1 d5015      44.005  28.131  54.641  0.00  0.00    -0.051 Br
ATOM     12  O2  LG1 d5015      38.572  28.698  54.245  0.00  0.00    -0.287 OA
ATOM     13  C10 LG1 d5015      36.637  30.486  55.305  0.00  0.00     0.025 C 
ENDROOT
BRANCH  13  14
ATOM     14  C11 LG1 d5015      35.625  31.417  55.703  0.00  0.00    -0.029 A 
ATOM     15  C14 LG1 d5015      35.295  31.645  57.020  0.00  0.00     0.061 A 
ATOM     16  S1  LG1 d5015      34.053  32.812  57.179  0.00  0.00    -0.113 SA
ATOM     17  C13 LG1 d5015      33.952  33.015  55.483  0.00  0.00     0.050 A 
ATOM     18  C12 LG1 d5015      34.846  32.212  54.812  0.00  0.00     0.019 A 
ENDBRANCH  13  14
TORSDOF 1
ENDMDL
MODEL 5
REMARK VINA RESULT:    -4.667      5.335      6.955
REMARK INTER + INTRA:          -5.075
REMARK INTER:                  -4.940
REMARK INTRA:                  -0.135
REMARK UNBOUND:                -0.135
REMARK  1 active torsions:
REMARK  status: ('A' for Active; 'I' for Inactive)
REMARK    1  A    between atoms: C10_13  and  C11_14 
ROOT
ATOM      1  C1  LG1 d5015      34.890  33.931  55.841  0.00  0.00     0.018 C 
ATOM      2  C2  LG1 d5015      35.177  32.494  55.604  0.00  0.00     0.193 C 
ATOM      3  C3  LG1 d5015      36.608  32.135  55.681  0.00  0.00     0.049 A 
ATOM      4  C4  LG1 d5015      37.023  30.838  55.369  0.00  0.00     0.037 A 
ATOM      5  C5  LG1 d5015      38.368  30.492  55.502  0.00  0.00     0.012 A 
ATOM      6  C6  LG1 d5015      39.295  31.431  55.956  0.00  0.00     0.022 A 
ATOM      7  C7  LG1 d5015      38.879  32.725  56.272  0.00  0.00     0.039 A 
ATOM      8  C8  LG1 d5015      37.540  33.084  56.120  0.00  0.00     0.083 A 
ATOM      9  O1  LG1 d5015      37.197  34.365  56.464  0.00  0.00    -0.346 OA
ATOM     10  C9  LG1 d5015      36.059  34.856  55.748  0.00  0.00     0.218 C 
ATOM     11 BR1  LG1 d5015      38.942  28.747  55.051  0.00  0.00    -0.051 Br
ATOM     12  O2  LG1 d5015      34.315  31.661  55.363  0.00  0.00    -0.287 OA
ATOM     13  C10 LG1 d5015      33.636  34.315  56.111  0.00  0.00     0.025 C 
ENDROOT
BRANCH  13  14
ATOM     14  C11 LG1 d5015      33.236  35.667  56.357  0.00  0.00    -0.029 A 
ATOM     15  C14 LG1 d5015      32.958  36.561  55.347  0.00  0.00     0.061 A 
ATOM     16  S1  LG1 d5015      32.506  38.096  55.954  0.00  0.00    -0.113 SA
ATOM     17  C13 LG1 d5015      32.682  37.569  57.573  0.00  0.00     0.050 A 
ATOM     18  C12 LG1 d5015      33.076  36.252  57.647  0.00  0.00     0.019 A 
ENDBRANCH  13  14
TORSDOF 1
ENDMDL
