MODEL 1
REMARK VINA RESULT:    -5.976      0.000      0.000
REMARK INTER + INTRA:          -7.220
REMARK INTER:                  -6.699
REMARK INTRA:                  -0.521
REMARK UNBOUND:                -0.545
REMARK  2 active torsions:
REMARK  status: ('A' for Active; 'I' for Inactive)
REMARK    1  A    between atoms: C1_1  and  N1_15 
REMARK    2  A    between atoms: C7_9  and  C4_4 
ROOT
ATOM      1  C1  LG1 d5015      38.592  30.612  55.285  0.00  0.00     0.141 A 
ATOM      2  C2  LG1 d5015      39.465  31.696  55.383  0.00  0.00     0.187 A 
ATOM      3  C3  LG1 d5015      40.693  31.666  54.722  0.00  0.00     0.175 A 
ATOM      4  C4  LG1 d5015      41.049  30.551  53.964  0.00  0.00     0.131 A 
ATOM      5  C5  LG1 d5015      40.178  29.467  53.866  0.00  0.00     0.175 A 
ATOM      6  C6  LG1 d5015      38.950  29.498  54.526  0.00  0.00     0.187 A 
ATOM      7  F1  LG1 d5015      38.122  28.448  54.422  0.00  0.00    -0.200 F 
ATOM      8  F2  LG1 d5015      40.512  28.390  53.139  0.00  0.00    -0.202 F 
ATOM      9  F6  LG1 d5015      41.524  32.714  54.823  0.00  0.00    -0.202 F 
ATOM     10  F7  LG1 d5015      39.135  32.775  56.109  0.00  0.00    -0.200 F 
ENDROOT
BRANCH   1  11
ATOM     11  N1  LG1 d5015      37.375  30.641  55.940  0.00  0.00    -0.232 N 
ATOM     12  N2  LG1 d5015      36.313  31.216  55.349  0.00  0.00    -0.172 NA
ATOM     13  C10 LG1 d5015      35.343  31.060  56.254  0.00  0.00     0.053 A 
ATOM     14  C9  LG1 d5015      35.782  30.393  57.413  0.00  0.00     0.055 A 
ATOM     15  C11 LG1 d5015      33.990  31.569  55.970  0.00  0.00     0.072 C 
ATOM     16  C8  LG1 d5015      37.110  30.133  57.177  0.00  0.00     0.035 A 
ATOM     17  C12 LG1 d5015      38.118  29.456  58.015  0.00  0.00     0.070 C 
ENDBRANCH   1  11
BRANCH   4  18
ATOM     18  C7  LG1 d5015      42.363  30.519  53.258  0.00  0.00     0.423 C 
ATOM     19  F4  LG1 d5015      42.930  31.751  53.102  0.00  0.00    -0.166 F 
ATOM     20  F3  LG1 d5015      42.295  29.996  51.998  0.00  0.00    -0.166 F 
ATOM     21  F5  LG1 d5015      43.293  29.767  53.916  0.00  0.00    -0.166 F 
ENDBRANCH   4  18
TORSDOF 2
ENDMDL
MODEL 2
REMARK VINA RESULT:    -5.974      0.044      2.326
REMARK INTER + INTRA:          -7.217
REMARK INTER:                  -6.695
REMARK INTRA:                  -0.522
REMARK UNBOUND:                -0.545
REMARK  2 active torsions:
REMARK  status: ('A' for Active; 'I' for Inactive)
REMARK    1  A    between atoms: C1_1  and  N1_15 
REMARK    2  A    between atoms: C7_9  and  C4_4 
ROOT
ATOM      1  C1  LG1 d5015      38.605  30.589  55.283  0.00  0.00     0.141 A 
ATOM      2  C2  LG1 d5015      38.954  29.468  54.530  0.00  0.00     0.187 A 
ATOM      3  C3  LG1 d5015      40.176  29.432  53.859  0.00  0.00     0.175 A 
ATOM      4  C4  LG1 d5015      41.049  30.517  53.940  0.00  0.00     0.131 A 
ATOM      5  C5  LG1 d5015      40.699  31.638  54.691  0.00  0.00     0.175 A 
ATOM      6  C6  LG1 d5015      39.478  31.674  55.363  0.00  0.00     0.187 A 
ATOM      7  F1  LG1 d5015      39.156  32.759  56.081  0.00  0.00    -0.200 F 
ATOM      8  F2  LG1 d5015      41.532  32.686  54.773  0.00  0.00    -0.202 F 
ATOM      9  F6  LG1 d5015      40.502  28.348  53.139  0.00  0.00    -0.202 F 
ATOM     10  F7  LG1 d5015      38.124  28.418  54.445  0.00  0.00    -0.200 F 
ENDROOT
BRANCH   1  11
ATOM     11  N1  LG1 d5015      37.393  30.627  55.948  0.00  0.00    -0.232 N 
ATOM     12  N2  LG1 d5015      36.331  31.212  55.369  0.00  0.00    -0.172 NA
ATOM     13  C10 LG1 d5015      35.367  31.062  56.281  0.00  0.00     0.053 A 
ATOM     14  C9  LG1 d5015      35.810  30.387  57.434  0.00  0.00     0.055 A 
ATOM     15  C11 LG1 d5015      34.016  31.583  56.010  0.00  0.00     0.072 C 
ATOM     16  C8  LG1 d5015      37.134  30.117  57.186  0.00  0.00     0.035 A 
ATOM     17  C12 LG1 d5015      38.143  29.428  58.013  0.00  0.00     0.070 C 
ENDBRANCH   1  11
BRANCH   4  18
ATOM     18  C7  LG1 d5015      42.355  30.477  53.220  0.00  0.00     0.423 C 
ATOM     19  F4  LG1 d5015      42.935  31.704  53.071  0.00  0.00    -0.166 F 
ATOM     20  F3  LG1 d5015      42.268  29.968  51.956  0.00  0.00    -0.166 F 
ATOM     21  F5  LG1 d5015      43.284  29.709  53.861  0.00  0.00    -0.166 F 
ENDBRANCH   4  18
TORSDOF 2
ENDMDL
MODEL 3
REMARK VINA RESULT:    -5.778      3.219      5.342
REMARK INTER + INTRA:          -6.999
REMARK INTER:                  -6.453
REMARK INTRA:                  -0.546
REMARK UNBOUND:                -0.545
REMARK  2 active torsions:
REMARK  status: ('A' for Active; 'I' for Inactive)
REMARK    1  A    between atoms: C1_1  and  N1_15 
REMARK    2  A    between atoms: C7_9  and  C4_4 
ROOT
ATOM      1  C1  LG1 d5015      40.624  29.865  55.701  0.00  0.00     0.141 A 
ATOM      2  C2  LG1 d5015      41.679  29.520  56.546  0.00  0.00     0.187 A 
ATOM      3  C3  LG1 d5015      41.572  28.404  57.375  0.00  0.00     0.175 A 
ATOM      4  C4  LG1 d5015      40.409  27.634  57.362  0.00  0.00     0.131 A 
ATOM      5  C5  LG1 d5015      39.354  27.979  56.519  0.00  0.00     0.175 A 
ATOM      6  C6  LG1 d5015      39.461  29.094  55.689  0.00  0.00     0.187 A 
ATOM      7  F1  LG1 d5015      38.438  29.414  54.883  0.00  0.00    -0.200 F 
ATOM      8  F2  LG1 d5015      38.232  27.244  56.500  0.00  0.00    -0.202 F 
ATOM      9  F6  LG1 d5015      42.593  28.081  58.183  0.00  0.00    -0.202 F 
ATOM     10  F7  LG1 d5015      42.803  30.252  56.568  0.00  0.00    -0.200 F 
ENDROOT
BRANCH   1  11
ATOM     11  N1  LG1 d5015      40.729  30.972  54.878  0.00  0.00    -0.232 N 
ATOM     12  N2  LG1 d5015      40.292  32.168  55.308  0.00  0.00    -0.172 NA
ATOM     13  C10 LG1 d5015      40.547  32.973  54.275  0.00  0.00     0.053 A 
ATOM     14  C9  LG1 d5015      41.143  32.298  53.192  0.00  0.00     0.055 A 
ATOM     15  C11 LG1 d5015      40.205  34.404  54.360  0.00  0.00     0.072 C 
ATOM     16  C8  LG1 d5015      41.247  30.996  53.617  0.00  0.00     0.035 A 
ATOM     17  C12 LG1 d5015      41.790  29.805  52.935  0.00  0.00     0.070 C 
ENDBRANCH   1  11
BRANCH   4  18
ATOM     18  C7  LG1 d5015      40.295  26.441  58.251  0.00  0.00     0.423 C 
ATOM     19  F4  LG1 d5015      41.372  25.605  58.185  0.00  0.00    -0.166 F 
ATOM     20  F3  LG1 d5015      39.215  25.654  57.973  0.00  0.00    -0.166 F 
ATOM     21  F5  LG1 d5015      40.173  26.778  59.568  0.00  0.00    -0.166 F 
ENDBRANCH   4  18
TORSDOF 2
ENDMDL
MODEL 4
REMARK VINA RESULT:    -5.617      5.127      7.571
REMARK INTER + INTRA:          -6.818
REMARK INTER:                  -6.274
REMARK INTRA:                  -0.545
REMARK UNBOUND:                -0.545
REMARK  2 active torsions:
REMARK  status: ('A' for Active; 'I' for Inactive)
REMARK    1  A    between atoms: C1_1  and  N1_15 
REMARK    2  A    between atoms: C7_9  and  C4_4 
ROOT
ATOM      1  C1  LG1 d5015      34.330  32.846  56.305  0.00  0.00     0.141 A 
ATOM      2  C2  LG1 d5015      34.071  32.910  54.935  0.00  0.00     0.187 A 
ATOM      3  C3  LG1 d5015      33.697  34.121  54.352  0.00  0.00     0.175 A 
ATOM      4  C4  LG1 d5015      33.580  35.267  55.138  0.00  0.00     0.131 A 
ATOM      5  C5  LG1 d5015      33.837  35.203  56.507  0.00  0.00     0.175 A 
ATOM      6  C6  LG1 d5015      34.212  33.993  57.090  0.00  0.00     0.187 A 
ATOM      7  F1  LG1 d5015      34.456  33.947  58.408  0.00  0.00    -0.200 F 
ATOM      8  F2  LG1 d5015      33.726  36.300  57.270  0.00  0.00    -0.202 F 
ATOM      9  F6  LG1 d5015      33.452  34.171  53.034  0.00  0.00    -0.202 F 
ATOM     10  F7  LG1 d5015      34.181  31.816  54.168  0.00  0.00    -0.200 F 
ENDROOT
BRANCH   1  11
ATOM     11  N1  LG1 d5015      34.700  31.646  56.884  0.00  0.00    -0.232 N 
ATOM     12  N2  LG1 d5015      33.760  30.834  57.396  0.00  0.00    -0.172 NA
ATOM     13  C10 LG1 d5015      34.471  29.802  57.857  0.00  0.00     0.053 A 
ATOM     14  C9  LG1 d5015      35.854  29.953  57.642  0.00  0.00     0.055 A 
ATOM     15  C11 LG1 d5015      33.783  28.672  58.505  0.00  0.00     0.072 C 
ATOM     16  C8  LG1 d5015      35.970  31.165  57.006  0.00  0.00     0.035 A 
ATOM     17  C12 LG1 d5015      37.165  31.880  56.517  0.00  0.00     0.070 C 
ENDBRANCH   1  11
BRANCH   4  18
ATOM     18  C7  LG1 d5015      33.179  36.561  54.513  0.00  0.00     0.423 C 
ATOM     19  F4  LG1 d5015      32.850  37.527  55.420  0.00  0.00    -0.166 F 
ATOM     20  F3  LG1 d5015      32.092  36.458  53.692  0.00  0.00    -0.166 F 
ATOM     21  F5  LG1 d5015      34.168  37.102  53.744  0.00  0.00    -0.166 F 
ENDBRANCH   4  18
TORSDOF 2
ENDMDL
MODEL 5
REMARK VINA RESULT:    -5.583      3.133      4.857
REMARK INTER + INTRA:          -6.780
REMARK INTER:                  -6.247
REMARK INTRA:                  -0.533
REMARK UNBOUND:                -0.545
REMARK  2 active torsions:
REMARK  status: ('A' for Active; 'I' for Inactive)
REMARK    1  A    between atoms: C1_1  and  N1_15 
REMARK    2  A    between atoms: C7_9  and  C4_4 
ROOT
ATOM      1  C1  LG1 d5015      41.152  28.946  56.395  0.00  0.00     0.141 A 
ATOM      2  C2  LG1 d5015      41.618  28.630  55.118  0.00  0.00     0.187 A 
ATOM      3  C3  LG1 d5015      41.696  29.621  54.140  0.00  0.00     0.175 A 
ATOM      4  C4  LG1 d5015      41.308  30.927  54.437  0.00  0.00     0.131 A 
ATOM      5  C5  LG1 d5015      40.841  31.243  55.713  0.00  0.00     0.175 A 
ATOM      6  C6  LG1 d5015      40.764  30.252  56.691  0.00  0.00     0.187 A 
ATOM      7  F1  LG1 d5015      40.314  30.570  57.914  0.00  0.00    -0.200 F 
ATOM      8  F2  LG1 d5015      40.465  32.496  56.007  0.00  0.00    -0.202 F 
ATOM      9  F6  LG1 d5015      42.146  29.307  52.916  0.00  0.00    -0.202 F 
ATOM     10  F7  LG1 d5015      41.995  27.378  54.819  0.00  0.00    -0.200 F 
ENDROOT
BRANCH   1  11
ATOM     11  N1  LG1 d5015      41.074  27.964  57.366  0.00  0.00    -0.232 N 
ATOM     12  N2  LG1 d5015      42.167  27.641  58.078  0.00  0.00    -0.172 NA
ATOM     13  C10 LG1 d5015      41.724  26.682  58.895  0.00  0.00     0.053 A 
ATOM     14  C9  LG1 d5015      40.359  26.394  58.706  0.00  0.00     0.055 A 
ATOM     15  C11 LG1 d5015      42.647  26.057  59.857  0.00  0.00     0.072 C 
ATOM     16  C8  LG1 d5015      39.965  27.246  57.703  0.00  0.00     0.035 A 
ATOM     17  C12 LG1 d5015      38.649  27.426  57.059  0.00  0.00     0.070 C 
ENDBRANCH   1  11
BRANCH   4  18
ATOM     18  C7  LG1 d5015      41.391  31.986  53.389  0.00  0.00     0.423 C 
ATOM     19  F4  LG1 d5015      40.905  33.196  53.795  0.00  0.00    -0.166 F 
ATOM     20  F3  LG1 d5015      40.695  31.686  52.253  0.00  0.00    -0.166 F 
ATOM     21  F5  LG1 d5015      42.672  32.223  52.983  0.00  0.00    -0.166 F 
ENDBRANCH   4  18
TORSDOF 2
ENDMDL
