MODEL 1
REMARK VINA RESULT:    -5.658      0.000      0.000
REMARK INTER + INTRA:          -6.069
REMARK INTER:                  -5.935
REMARK INTRA:                  -0.134
REMARK UNBOUND:                -0.080
REMARK  1 active torsions:
REMARK  status: ('A' for Active; 'I' for Inactive)
REMARK    1  A    between atoms: C10_13  and  C11_14 
ROOT
ATOM      1  C1  LG1 d5015      40.914  30.885  54.585  0.00  0.00     0.018 C 
ATOM      2  C2  LG1 d5015      40.765  29.517  54.029  0.00  0.00     0.193 C 
ATOM      3  C3  LG1 d5015      41.965  28.665  54.171  0.00  0.00     0.049 A 
ATOM      4  C4  LG1 d5015      41.994  27.395  53.591  0.00  0.00     0.037 A 
ATOM      5  C5  LG1 d5015      43.106  26.574  53.781  0.00  0.00     0.012 A 
ATOM      6  C6  LG1 d5015      44.181  27.013  54.555  0.00  0.00     0.022 A 
ATOM      7  C7  LG1 d5015      44.149  28.281  55.137  0.00  0.00     0.039 A 
ATOM      8  C8  LG1 d5015      43.050  29.115  54.933  0.00  0.00     0.083 A 
ATOM      9  O1  LG1 d5015      43.076  30.339  55.548  0.00  0.00    -0.346 OA
ATOM     10  C9  LG1 d5015      42.313  31.334  54.857  0.00  0.00     0.218 C 
ATOM     11 BR1  LG1 d5015      43.166  24.865  52.972  0.00  0.00    -0.051 Br
ATOM     12  O2  LG1 d5015      39.745  29.110  53.493  0.00  0.00    -0.287 OA
ATOM     13  C10 LG1 d5015      39.822  31.628  54.803  0.00  0.00     0.025 C 
ENDROOT
BRANCH  13  14
ATOM     14  C11 LG1 d5015      39.837  32.958  55.335  0.00  0.00    -0.029 A 
ATOM     15  C14 LG1 d5015      39.561  33.238  56.654  0.00  0.00     0.061 A 
ATOM     16  S1  LG1 d5015      39.660  34.914  56.989  0.00  0.00    -0.113 SA
ATOM     17  C13 LG1 d5015      40.071  35.270  55.366  0.00  0.00     0.050 A 
ATOM     18  C12 LG1 d5015      40.133  34.135  54.588  0.00  0.00     0.019 A 
ENDBRANCH  13  14
TORSDOF 1
ENDMDL
MODEL 2
REMARK VINA RESULT:    -5.358      2.870      4.347
REMARK INTER + INTRA:          -5.751
REMARK INTER:                  -5.583
REMARK INTRA:                  -0.168
REMARK UNBOUND:                -0.080
REMARK  1 active torsions:
REMARK  status: ('A' for Active; 'I' for Inactive)
REMARK    1  A    between atoms: C10_13  and  C11_14 
ROOT
ATOM      1  C1  LG1 d5015      38.546  33.284  55.769  0.00  0.00     0.018 C 
ATOM      2  C2  LG1 d5015      39.810  32.721  55.232  0.00  0.00     0.193 C 
ATOM      3  C3  LG1 d5015      39.759  31.273  54.938  0.00  0.00     0.049 A 
ATOM      4  C4  LG1 d5015      40.913  30.599  54.534  0.00  0.00     0.037 A 
ATOM      5  C5  LG1 d5015      40.843  29.246  54.200  0.00  0.00     0.012 A 
ATOM      6  C6  LG1 d5015      39.624  28.570  54.259  0.00  0.00     0.022 A 
ATOM      7  C7  LG1 d5015      38.469  29.245  54.659  0.00  0.00     0.039 A 
ATOM      8  C8  LG1 d5015      38.538  30.592  55.015  0.00  0.00     0.083 A 
ATOM      9  O1  LG1 d5015      37.365  31.197  55.381  0.00  0.00    -0.346 OA
ATOM     10  C9  LG1 d5015      37.553  32.293  56.283  0.00  0.00     0.218 C 
ATOM     11 BR1  LG1 d5015      42.408  28.320  53.682  0.00  0.00    -0.051 Br
ATOM     12  O2  LG1 d5015      40.821  33.382  55.042  0.00  0.00    -0.287 OA
ATOM     13  C10 LG1 d5015      38.366  34.611  55.771  0.00  0.00     0.025 C 
ENDROOT
BRANCH  13  14
ATOM     14  C11 LG1 d5015      37.194  35.271  56.261  0.00  0.00    -0.029 A 
ATOM     15  C14 LG1 d5015      37.085  35.744  57.549  0.00  0.00     0.061 A 
ATOM     16  S1  LG1 d5015      35.569  36.485  57.835  0.00  0.00    -0.113 SA
ATOM     17  C13 LG1 d5015      35.052  36.173  56.234  0.00  0.00     0.050 A 
ATOM     18  C12 LG1 d5015      36.016  35.519  55.498  0.00  0.00     0.019 A 
ENDBRANCH  13  14
TORSDOF 1
ENDMDL
MODEL 3
REMARK VINA RESULT:    -5.090      3.873      5.029
REMARK INTER + INTRA:          -5.467
REMARK INTER:                  -5.300
REMARK INTRA:                  -0.168
REMARK UNBOUND:                -0.080
REMARK  1 active torsions:
REMARK  status: ('A' for Active; 'I' for Inactive)
REMARK    1  A    between atoms: C10_13  and  C11_14 
ROOT
ATOM      1  C1  LG1 d5015      38.013  31.288  56.126  0.00  0.00     0.018 C 
ATOM      2  C2  LG1 d5015      39.199  32.023  55.618  0.00  0.00     0.193 C 
ATOM      3  C3  LG1 d5015      40.093  31.221  54.755  0.00  0.00     0.049 A 
ATOM      4  C4  LG1 d5015      41.299  31.760  54.305  0.00  0.00     0.037 A 
ATOM      5  C5  LG1 d5015      42.108  31.019  53.442  0.00  0.00     0.012 A 
ATOM      6  C6  LG1 d5015      41.710  29.750  53.022  0.00  0.00     0.022 A 
ATOM      7  C7  LG1 d5015      40.502  29.213  53.469  0.00  0.00     0.039 A 
ATOM      8  C8  LG1 d5015      39.700  29.940  54.349  0.00  0.00     0.083 A 
ATOM      9  O1  LG1 d5015      38.520  29.361  54.735  0.00  0.00    -0.346 OA
ATOM     10  C9  LG1 d5015      38.072  29.798  56.023  0.00  0.00     0.218 C 
ATOM     11 BR1  LG1 d5015      43.759  31.731  52.853  0.00  0.00    -0.051 Br
ATOM     12  O2  LG1 d5015      39.436  33.193  55.881  0.00  0.00    -0.287 OA
ATOM     13  C10 LG1 d5015      36.985  31.974  56.639  0.00  0.00     0.025 C 
ENDROOT
BRANCH  13  14
ATOM     14  C11 LG1 d5015      35.790  31.380  57.158  0.00  0.00    -0.029 A 
ATOM     15  C14 LG1 d5015      35.617  31.092  58.493  0.00  0.00     0.061 A 
ATOM     16  S1  LG1 d5015      34.088  30.390  58.806  0.00  0.00    -0.113 SA
ATOM     17  C13 LG1 d5015      33.651  30.469  57.153  0.00  0.00     0.050 A 
ATOM     18  C12 LG1 d5015      34.651  31.020  56.381  0.00  0.00     0.019 A 
ENDBRANCH  13  14
TORSDOF 1
ENDMDL
MODEL 4
REMARK VINA RESULT:    -5.088      4.668      7.354
REMARK INTER + INTRA:          -5.466
REMARK INTER:                  -5.318
REMARK INTRA:                  -0.148
REMARK UNBOUND:                -0.080
REMARK  1 active torsions:
REMARK  status: ('A' for Active; 'I' for Inactive)
REMARK    1  A    between atoms: C10_13  and  C11_14 
ROOT
ATOM      1  C1  LG1 d5015      38.666  31.053  55.323  0.00  0.00     0.018 C 
ATOM      2  C2  LG1 d5015      37.253  31.366  55.652  0.00  0.00     0.193 C 
ATOM      3  C3  LG1 d5015      37.021  32.757  56.095  0.00  0.00     0.049 A 
ATOM      4  C4  LG1 d5015      35.756  33.149  56.540  0.00  0.00     0.037 A 
ATOM      5  C5  LG1 d5015      35.531  34.479  56.899  0.00  0.00     0.012 A 
ATOM      6  C6  LG1 d5015      36.559  35.417  56.804  0.00  0.00     0.022 A 
ATOM      7  C7  LG1 d5015      37.822  35.025  56.355  0.00  0.00     0.039 A 
ATOM      8  C8  LG1 d5015      38.059  33.693  56.016  0.00  0.00     0.083 A 
ATOM      9  O1  LG1 d5015      39.315  33.382  55.567  0.00  0.00    -0.346 OA
ATOM     10  C9  LG1 d5015      39.686  32.023  55.826  0.00  0.00     0.218 C 
ATOM     11 BR1  LG1 d5015      33.829  35.009  57.532  0.00  0.00    -0.051 Br
ATOM     12  O2  LG1 d5015      36.342  30.555  55.571  0.00  0.00    -0.287 OA
ATOM     13  C10 LG1 d5015      38.948  29.950  54.620  0.00  0.00     0.025 C 
ENDROOT
BRANCH  13  14
ATOM     14  C11 LG1 d5015      40.268  29.543  54.242  0.00  0.00    -0.029 A 
ATOM     15  C14 LG1 d5015      40.972  28.571  54.915  0.00  0.00     0.061 A 
ATOM     16  S1  LG1 d5015      42.517  28.303  54.227  0.00  0.00    -0.113 SA
ATOM     17  C13 LG1 d5015      42.248  29.491  53.025  0.00  0.00     0.050 A 
ATOM     18  C12 LG1 d5015      41.007  30.077  53.147  0.00  0.00     0.019 A 
ENDBRANCH  13  14
TORSDOF 1
ENDMDL
MODEL 5
REMARK VINA RESULT:    -4.990      3.281      4.756
REMARK INTER + INTRA:          -5.362
REMARK INTER:                  -5.282
REMARK INTRA:                  -0.080
REMARK UNBOUND:                -0.080
REMARK  1 active torsions:
REMARK  status: ('A' for Active; 'I' for Inactive)
REMARK    1  A    between atoms: C10_13  and  C11_14 
ROOT
ATOM      1  C1  LG1 d5015      39.006  34.277  56.613  0.00  0.00     0.018 C 
ATOM      2  C2  LG1 d5015      39.046  32.799  56.488  0.00  0.00     0.193 C 
ATOM      3  C3  LG1 d5015      39.734  32.305  55.276  0.00  0.00     0.049 A 
ATOM      4  C4  LG1 d5015      39.742  30.940  54.983  0.00  0.00     0.037 A 
ATOM      5  C5  LG1 d5015      40.445  30.476  53.870  0.00  0.00     0.012 A 
ATOM      6  C6  LG1 d5015      41.146  31.369  53.059  0.00  0.00     0.022 A 
ATOM      7  C7  LG1 d5015      41.140  32.733  53.355  0.00  0.00     0.039 A 
ATOM      8  C8  LG1 d5015      40.421  33.205  54.453  0.00  0.00     0.083 A 
ATOM      9  O1  LG1 d5015      40.472  34.552  54.695  0.00  0.00    -0.346 OA
ATOM     10  C9  LG1 d5015      39.311  35.048  55.370  0.00  0.00     0.218 C 
ATOM     11 BR1  LG1 d5015      40.435  28.632  53.450  0.00  0.00    -0.051 Br
ATOM     12  O2  LG1 d5015      38.555  32.035  57.307  0.00  0.00    -0.287 OA
ATOM     13  C10 LG1 d5015      38.704  34.829  57.795  0.00  0.00     0.025 C 
ENDROOT
BRANCH  13  14
ATOM     14  C11 LG1 d5015      38.636  36.238  58.040  0.00  0.00    -0.029 A 
ATOM     15  C14 LG1 d5015      39.755  37.031  58.156  0.00  0.00     0.061 A 
ATOM     16  S1  LG1 d5015      39.353  38.670  58.444  0.00  0.00    -0.113 SA
ATOM     17  C13 LG1 d5015      37.678  38.322  58.415  0.00  0.00     0.050 A 
ATOM     18  C12 LG1 d5015      37.432  36.986  58.189  0.00  0.00     0.019 A 
ENDBRANCH  13  14
TORSDOF 1
ENDMDL
