REMARK INTER + INTRA:          -5.466
REMARK INTER:                  -5.318
REMARK INTRA:                  -0.148
REMARK UNBOUND:                -0.080
REMARK  1 active torsions:
REMARK  status: ('A' for Active; 'I' for Inactive)
REMARK    1  A    between atoms: C10_13  and  C11_14 
ROOT
ATOM      1  C1  LG1 d5015      38.666  31.053  55.323  0.00  0.00     0.018 C 
ATOM      2  C2  LG1 d5015      37.253  31.366  55.652  0.00  0.00     0.193 C 
ATOM      3  C3  LG1 d5015      37.021  32.757  56.095  0.00  0.00     0.049 A 
ATOM      4  C4  LG1 d5015      35.756  33.149  56.540  0.00  0.00     0.037 A 
ATOM      5  C5  LG1 d5015      35.531  34.479  56.899  0.00  0.00     0.012 A 
ATOM      6  C6  LG1 d5015      36.559  35.417  56.804  0.00  0.00     0.022 A 
ATOM      7  C7  LG1 d5015      37.822  35.025  56.355  0.00  0.00     0.039 A 
ATOM      8  C8  LG1 d5015      38.059  33.693  56.016  0.00  0.00     0.083 A 
ATOM      9  O1  LG1 d5015      39.315  33.382  55.567  0.00  0.00    -0.346 OA
ATOM     10  C9  LG1 d5015      39.686  32.023  55.826  0.00  0.00     0.218 C 
ATOM     11 BR1  LG1 d5015      33.829  35.009  57.532  0.00  0.00    -0.051 Br
ATOM     12  O2  LG1 d5015      36.342  30.555  55.571  0.00  0.00    -0.287 OA
ATOM     13  C10 LG1 d5015      38.948  29.950  54.620  0.00  0.00     0.025 C 
ENDROOT
BRANCH  13  14
ATOM     14  C11 LG1 d5015      40.268  29.543  54.242  0.00  0.00    -0.029 A 
ATOM     15  C14 LG1 d5015      40.972  28.571  54.915  0.00  0.00     0.061 A 
ATOM     16  S1  LG1 d5015      42.517  28.303  54.227  0.00  0.00    -0.113 SA
ATOM     17  C13 LG1 d5015      42.248  29.491  53.025  0.00  0.00     0.050 A 
ATOM     18  C12 LG1 d5015      41.007  30.077  53.147  0.00  0.00     0.019 A 
ENDBRANCH  13  14
TORSDOF 1
ENDMDL
