REMARK INTER + INTRA:          -5.471
REMARK INTER:                  -5.316
REMARK INTRA:                  -0.155
REMARK UNBOUND:                -0.169
REMARK  1 active torsions:
REMARK  status: ('A' for Active; 'I' for Inactive)
REMARK    1  A    between atoms: C10_13  and  C11_14 
ROOT
ATOM      1  C1  LG1 d5015      38.665  31.035  55.327  0.00  0.00     0.018 C 
ATOM      2  C2  LG1 d5015      37.256  31.371  55.648  0.00  0.00     0.193 C 
ATOM      3  C3  LG1 d5015      37.042  32.770  56.073  0.00  0.00     0.049 A 
ATOM      4  C4  LG1 d5015      35.782  33.184  56.511  0.00  0.00     0.037 A 
ATOM      5  C5  LG1 d5015      35.573  34.521  56.853  0.00  0.00     0.012 A 
ATOM      6  C6  LG1 d5015      36.614  35.444  56.749  0.00  0.00     0.022 A 
ATOM      7  C7  LG1 d5015      37.872  35.030  56.308  0.00  0.00     0.039 A 
ATOM      8  C8  LG1 d5015      38.092  33.691  55.986  0.00  0.00     0.083 A 
ATOM      9  O1  LG1 d5015      39.345  33.357  55.544  0.00  0.00    -0.346 OA
ATOM     10  C9  LG1 d5015      39.697  31.997  55.820  0.00  0.00     0.218 C 
ATOM     11 BR1  LG1 d5015      33.877  35.081  57.476  0.00  0.00    -0.051 Br
ATOM     12  O2  LG1 d5015      36.334  30.571  55.575  0.00  0.00    -0.287 OA
ATOM     13  C10 LG1 d5015      38.935  29.919  54.637  0.00  0.00     0.025 C 
ENDROOT
BRANCH  13  14
ATOM     14  C11 LG1 d5015      40.250  29.491  54.267  0.00  0.00    -0.029 A 
ATOM     15  C14 LG1 d5015      40.949  28.533  54.968  0.00  0.00     0.061 A 
ATOM     16  S1  LG1 d5015      42.489  28.233  54.284  0.00  0.00    -0.113 SA
ATOM     17  C13 LG1 d5015      42.224  29.385  53.045  0.00  0.00     0.050 A 
ATOM     18  C12 LG1 d5015      40.989  29.984  53.152  0.00  0.00     0.019 A 
ENDBRANCH  13  14
TORSDOF 1
ENDMDL
