MODEL 1
REMARK VINA RESULT:    -4.871      0.000      0.000
REMARK INTER + INTRA:          -5.358
REMARK INTER:                  -5.165
REMARK INTRA:                  -0.194
REMARK UNBOUND:                -0.203
REMARK  1 active torsions:
REMARK  status: ('A' for Active; 'I' for Inactive)
REMARK    1  A    between atoms: C1_1  and  N1_10 
ROOT
ATOM      1  C1  LG1 d5015      39.975  31.177  55.081  0.00  0.00     0.056 A 
ATOM      2  C2  LG1 d5015      39.426  32.238  55.801  0.00  0.00    -0.033 A 
ATOM      3  C3  LG1 d5015      38.076  32.218  56.151  0.00  0.00     0.028 A 
ATOM      4  C4  LG1 d5015      37.275  31.139  55.782  0.00  0.00     0.012 A 
ATOM      5  C5  LG1 d5015      37.824  30.077  55.060  0.00  0.00     0.028 A 
ATOM      6  C6  LG1 d5015      39.173  30.098  54.710  0.00  0.00    -0.033 A 
ATOM      7  C7  LG1 d5015      39.732  28.947  53.938  0.00  0.00     0.050 C 
ATOM      8 BR1  LG1 d5015      35.445  31.114  56.256  0.00  0.00    -0.051 Br
ATOM      9  C8  LG1 d5015      40.260  33.408  56.213  0.00  0.00     0.050 C 
ENDROOT
BRANCH   1  10
ATOM     10  N1  LG1 d5015      41.365  31.196  54.721  0.00  0.00    -0.265 N 
ATOM     11  C11 LG1 d5015      42.383  30.654  55.505  0.00  0.00     0.148 C 
ATOM     12  S2  LG1 d5015      42.302  29.678  56.865  0.00  0.00    -0.052 SA
ATOM     13  S1  LG1 d5015      43.942  31.049  54.792  0.00  0.00    -0.090 SA
ATOM     14  C10 LG1 d5015      43.227  31.685  53.276  0.00  0.00     0.185 C 
ATOM     15  C9  LG1 d5015      41.751  31.808  53.520  0.00  0.00     0.239 C 
ATOM     16  O1  LG1 d5015      41.033  32.405  52.722  0.00  0.00    -0.272 OA
ENDBRANCH   1  10
TORSDOF 1
ENDMDL
MODEL 2
REMARK VINA RESULT:    -4.867      0.055      2.152
REMARK INTER + INTRA:          -5.354
REMARK INTER:                  -5.154
REMARK INTRA:                  -0.201
REMARK UNBOUND:                -0.203
REMARK  1 active torsions:
REMARK  status: ('A' for Active; 'I' for Inactive)
REMARK    1  A    between atoms: C1_1  and  N1_10 
ROOT
ATOM      1  C1  LG1 d5015      39.963  31.190  55.098  0.00  0.00     0.056 A 
ATOM      2  C2  LG1 d5015      39.170  30.096  54.753  0.00  0.00    -0.033 A 
ATOM      3  C3  LG1 d5015      37.820  30.075  55.106  0.00  0.00     0.028 A 
ATOM      4  C4  LG1 d5015      37.264  31.147  55.803  0.00  0.00     0.012 A 
ATOM      5  C5  LG1 d5015      38.058  32.242  56.148  0.00  0.00     0.028 A 
ATOM      6  C6  LG1 d5015      39.407  32.262  55.796  0.00  0.00    -0.033 A 
ATOM      7  C7  LG1 d5015      40.232  33.448  56.179  0.00  0.00     0.050 C 
ATOM      8 BR1  LG1 d5015      35.435  31.117  56.282  0.00  0.00    -0.051 Br
ATOM      9  C8  LG1 d5015      39.737  28.933  54.005  0.00  0.00     0.050 C 
ENDROOT
BRANCH   1  10
ATOM     10  N1  LG1 d5015      41.351  31.213  54.734  0.00  0.00    -0.265 N 
ATOM     11  C11 LG1 d5015      42.378  30.713  55.534  0.00  0.00     0.148 C 
ATOM     12  S2  LG1 d5015      42.312  29.788  56.930  0.00  0.00    -0.052 SA
ATOM     13  S1  LG1 d5015      43.931  31.101  54.804  0.00  0.00    -0.090 SA
ATOM     14  C10 LG1 d5015      43.205  31.671  53.267  0.00  0.00     0.185 C 
ATOM     15  C9  LG1 d5015      41.727  31.784  53.510  0.00  0.00     0.239 C 
ATOM     16  O1  LG1 d5015      41.000  32.342  52.692  0.00  0.00    -0.272 OA
ENDBRANCH   1  10
TORSDOF 1
ENDMDL
MODEL 3
REMARK VINA RESULT:    -4.733      2.122      2.855
REMARK INTER + INTRA:          -5.213
REMARK INTER:                  -5.010
REMARK INTRA:                  -0.203
REMARK UNBOUND:                -0.203
REMARK  1 active torsions:
REMARK  status: ('A' for Active; 'I' for Inactive)
REMARK    1  A    between atoms: C1_1  and  N1_10 
ROOT
ATOM      1  C1  LG1 d5015      40.786  30.757  55.038  0.00  0.00     0.056 A 
ATOM      2  C2  LG1 d5015      40.975  31.941  54.326  0.00  0.00    -0.033 A 
ATOM      3  C3  LG1 d5015      40.192  33.059  54.613  0.00  0.00     0.028 A 
ATOM      4  C4  LG1 d5015      39.220  32.994  55.611  0.00  0.00     0.012 A 
ATOM      5  C5  LG1 d5015      39.030  31.807  56.323  0.00  0.00     0.028 A 
ATOM      6  C6  LG1 d5015      39.813  30.690  56.035  0.00  0.00    -0.033 A 
ATOM      7  C7  LG1 d5015      39.587  29.435  56.814  0.00  0.00     0.050 C 
ATOM      8 BR1  LG1 d5015      38.158  34.509  55.999  0.00  0.00    -0.051 Br
ATOM      9  C8  LG1 d5015      42.009  32.043  53.252  0.00  0.00     0.050 C 
ENDROOT
BRANCH   1  10
ATOM     10  N1  LG1 d5015      41.592  29.606  54.744  0.00  0.00    -0.265 N 
ATOM     11  C11 LG1 d5015      42.842  29.361  55.311  0.00  0.00     0.148 C 
ATOM     12  S2  LG1 d5015      43.624  30.123  56.582  0.00  0.00    -0.052 SA
ATOM     13  S1  LG1 d5015      43.564  27.949  54.548  0.00  0.00    -0.090 SA
ATOM     14  C10 LG1 d5015      42.064  27.500  53.676  0.00  0.00     0.185 C 
ATOM     15  C9  LG1 d5015      41.124  28.662  53.818  0.00  0.00     0.239 C 
ATOM     16  O1  LG1 d5015      40.092  28.717  53.154  0.00  0.00    -0.272 OA
ENDBRANCH   1  10
TORSDOF 1
ENDMDL
MODEL 4
REMARK VINA RESULT:    -4.652      2.040      2.877
REMARK INTER + INTRA:          -5.127
REMARK INTER:                  -4.931
REMARK INTRA:                  -0.196
REMARK UNBOUND:                -0.203
REMARK  1 active torsions:
REMARK  status: ('A' for Active; 'I' for Inactive)
REMARK    1  A    between atoms: C1_1  and  N1_10 
ROOT
ATOM      1  C1  LG1 d5015      40.580  30.910  55.183  0.00  0.00     0.056 A 
ATOM      2  C2  LG1 d5015      39.707  30.770  56.261  0.00  0.00    -0.033 A 
ATOM      3  C3  LG1 d5015      38.871  31.827  56.623  0.00  0.00     0.028 A 
ATOM      4  C4  LG1 d5015      38.908  33.023  55.907  0.00  0.00     0.012 A 
ATOM      5  C5  LG1 d5015      39.783  33.163  54.828  0.00  0.00     0.028 A 
ATOM      6  C6  LG1 d5015      40.618  32.106  54.467  0.00  0.00    -0.033 A 
ATOM      7  C7  LG1 d5015      41.544  32.286  53.307  0.00  0.00     0.050 C 
ATOM      8 BR1  LG1 d5015      37.776  34.455  56.398  0.00  0.00    -0.051 Br
ATOM      9  C8  LG1 d5015      39.643  29.500  57.047  0.00  0.00     0.050 C 
ENDROOT
BRANCH   1  10
ATOM     10  N1  LG1 d5015      41.440  29.822  54.810  0.00  0.00    -0.265 N 
ATOM     11  C11 LG1 d5015      42.755  29.677  55.252  0.00  0.00     0.148 C 
ATOM     12  S2  LG1 d5015      43.596  30.505  56.442  0.00  0.00    -0.052 SA
ATOM     13  S1  LG1 d5015      43.505  28.321  54.420  0.00  0.00    -0.090 SA
ATOM     14  C10 LG1 d5015      41.965  27.752  53.698  0.00  0.00     0.185 C 
ATOM     15  C9  LG1 d5015      40.957  28.840  53.933  0.00  0.00     0.239 C 
ATOM     16  O1  LG1 d5015      39.865  28.812  53.373  0.00  0.00    -0.272 OA
ENDBRANCH   1  10
TORSDOF 1
ENDMDL
MODEL 5
REMARK VINA RESULT:    -4.381      3.025      4.183
REMARK INTER + INTRA:          -4.840
REMARK INTER:                  -4.637
REMARK INTRA:                  -0.203
REMARK UNBOUND:                -0.203
REMARK  1 active torsions:
REMARK  status: ('A' for Active; 'I' for Inactive)
REMARK    1  A    between atoms: C1_1  and  N1_10 
ROOT
ATOM      1  C1  LG1 d5015      41.293  30.490  54.893  0.00  0.00     0.056 A 
ATOM      2  C2  LG1 d5015      42.668  30.270  54.964  0.00  0.00    -0.033 A 
ATOM      3  C3  LG1 d5015      43.191  29.019  54.635  0.00  0.00     0.028 A 
ATOM      4  C4  LG1 d5015      42.340  27.990  54.235  0.00  0.00     0.012 A 
ATOM      5  C5  LG1 d5015      40.963  28.211  54.165  0.00  0.00     0.028 A 
ATOM      6  C6  LG1 d5015      40.441  29.461  54.494  0.00  0.00    -0.033 A 
ATOM      7  C7  LG1 d5015      38.963  29.667  54.410  0.00  0.00     0.050 C 
ATOM      8 BR1  LG1 d5015      43.049  26.295  53.791  0.00  0.00    -0.051 Br
ATOM      9  C8  LG1 d5015      43.606  31.353  55.388  0.00  0.00     0.050 C 
ENDROOT
BRANCH   1  10
ATOM     10  N1  LG1 d5015      40.754  31.778  55.231  0.00  0.00    -0.265 N 
ATOM     11  C11 LG1 d5015      40.293  32.124  56.501  0.00  0.00     0.148 C 
ATOM     12  S2  LG1 d5015      40.434  31.318  57.963  0.00  0.00    -0.052 SA
ATOM     13  S1  LG1 d5015      39.553  33.719  56.439  0.00  0.00    -0.090 SA
ATOM     14  C10 LG1 d5015      40.130  34.058  54.775  0.00  0.00     0.185 C 
ATOM     15  C9  LG1 d5015      40.659  32.761  54.236  0.00  0.00     0.239 C 
ATOM     16  O1  LG1 d5015      40.938  32.646  53.045  0.00  0.00    -0.272 OA
ENDBRANCH   1  10
TORSDOF 1
ENDMDL
