REMARK INTER + INTRA:          -5.225
REMARK INTER:                  -5.069
REMARK INTRA:                  -0.156
REMARK UNBOUND:                -0.156
REMARK  1 active torsions:
REMARK  status: ('A' for Active; 'I' for Inactive)
REMARK    1  A    between atoms: C10_13  and  C11_14 
ROOT
ATOM      1  C1  LG1 d5015      34.870  33.956  55.798  0.00  0.00     0.018 C 
ATOM      2  C2  LG1 d5015      35.169  32.518  55.579  0.00  0.00     0.193 C 
ATOM      3  C3  LG1 d5015      36.600  32.166  55.693  0.00  0.00     0.049 A 
ATOM      4  C4  LG1 d5015      37.028  30.870  55.400  0.00  0.00     0.037 A 
ATOM      5  C5  LG1 d5015      38.371  30.530  55.567  0.00  0.00     0.012 A 
ATOM      6  C6  LG1 d5015      39.283  31.477  56.035  0.00  0.00     0.022 A 
ATOM      7  C7  LG1 d5015      38.854  32.772  56.331  0.00  0.00     0.039 A 
ATOM      8  C8  LG1 d5015      37.517  33.123  56.145  0.00  0.00     0.083 A 
ATOM      9  O1  LG1 d5015      37.161  34.405  56.471  0.00  0.00    -0.346 OA
ATOM     10  C9  LG1 d5015      36.038  34.886  55.725  0.00  0.00     0.218 C 
ATOM     11 BR1  LG1 d5015      38.963  28.784  55.143  0.00  0.00    -0.051 Br
ATOM     12  O2  LG1 d5015      34.317  31.680  55.325  0.00  0.00    -0.287 OA
ATOM     13  C10 LG1 d5015      33.609  34.336  56.036  0.00  0.00     0.025 C 
ENDROOT
BRANCH  13  14
ATOM     14  C11 LG1 d5015      33.198  35.689  56.262  0.00  0.00    -0.029 A 
ATOM     15  C14 LG1 d5015      33.026  36.217  57.522  0.00  0.00     0.061 A 
ATOM     16  S1  LG1 d5015      32.532  37.855  57.470  0.00  0.00    -0.113 SA
ATOM     17  C13 LG1 d5015      32.547  37.863  55.758  0.00  0.00     0.050 A 
ATOM     18  C12 LG1 d5015      32.921  36.643  55.240  0.00  0.00     0.019 A 
ENDBRANCH  13  14
TORSDOF 1
ENDMDL
