REMARK INTER + INTRA:          -5.360
REMARK INTER:                  -5.164
REMARK INTRA:                  -0.196
REMARK UNBOUND:                -0.208
REMARK  1 active torsions:
REMARK  status: ('A' for Active; 'I' for Inactive)
REMARK    1  A    between atoms: C1_1  and  N1_10 
ROOT
ATOM      1  C1  LG1 d5015      39.970  31.162  55.084  0.00  0.00     0.056 A 
ATOM      2  C2  LG1 d5015      39.420  32.231  55.791  0.00  0.00    -0.033 A 
ATOM      3  C3  LG1 d5015      38.071  32.213  56.144  0.00  0.00     0.028 A 
ATOM      4  C4  LG1 d5015      37.271  31.127  55.791  0.00  0.00     0.012 A 
ATOM      5  C5  LG1 d5015      37.821  30.057  55.082  0.00  0.00     0.028 A 
ATOM      6  C6  LG1 d5015      39.170  30.076  54.730  0.00  0.00    -0.033 A 
ATOM      7  C7  LG1 d5015      39.730  28.916  53.971  0.00  0.00     0.050 C 
ATOM      8 BR1  LG1 d5015      35.442  31.104  56.268  0.00  0.00    -0.051 Br
ATOM      9  C8  LG1 d5015      40.252  33.408  56.186  0.00  0.00     0.050 C 
ENDROOT
BRANCH   1  10
ATOM     10  N1  LG1 d5015      41.359  31.179  54.722  0.00  0.00    -0.265 N 
ATOM     11  C11 LG1 d5015      42.380  30.652  55.513  0.00  0.00     0.148 C 
ATOM     12  S2  LG1 d5015      42.303  29.700  56.889  0.00  0.00    -0.052 SA
ATOM     13  S1  LG1 d5015      43.937  31.041  54.790  0.00  0.00    -0.090 SA
ATOM     14  C10 LG1 d5015      43.217  31.649  53.266  0.00  0.00     0.185 C 
ATOM     15  C9  LG1 d5015      41.741  31.771  53.510  0.00  0.00     0.239 C 
ATOM     16  O1  LG1 d5015      41.020  32.352  52.703  0.00  0.00    -0.272 OA
ENDBRANCH   1  10
TORSDOF 1
ENDMDL
