REMARK INTER + INTRA:          -7.217
REMARK INTER:                  -6.695
REMARK INTRA:                  -0.522
REMARK UNBOUND:                -0.545
REMARK  2 active torsions:
REMARK  status: ('A' for Active; 'I' for Inactive)
REMARK    1  A    between atoms: C1_1  and  N1_15 
REMARK    2  A    between atoms: C7_9  and  C4_4 
ROOT
ATOM      1  C1  LG1 d5015      38.605  30.589  55.283  0.00  0.00     0.141 A 
ATOM      2  C2  LG1 d5015      38.954  29.468  54.530  0.00  0.00     0.187 A 
ATOM      3  C3  LG1 d5015      40.176  29.432  53.859  0.00  0.00     0.175 A 
ATOM      4  C4  LG1 d5015      41.049  30.517  53.940  0.00  0.00     0.131 A 
ATOM      5  C5  LG1 d5015      40.699  31.638  54.691  0.00  0.00     0.175 A 
ATOM      6  C6  LG1 d5015      39.478  31.674  55.363  0.00  0.00     0.187 A 
ATOM      7  F1  LG1 d5015      39.156  32.759  56.081  0.00  0.00    -0.200 F 
ATOM      8  F2  LG1 d5015      41.532  32.686  54.773  0.00  0.00    -0.202 F 
ATOM      9  F6  LG1 d5015      40.502  28.348  53.139  0.00  0.00    -0.202 F 
ATOM     10  F7  LG1 d5015      38.124  28.418  54.445  0.00  0.00    -0.200 F 
ENDROOT
BRANCH   1  11
ATOM     11  N1  LG1 d5015      37.393  30.627  55.948  0.00  0.00    -0.232 N 
ATOM     12  N2  LG1 d5015      36.331  31.212  55.369  0.00  0.00    -0.172 NA
ATOM     13  C10 LG1 d5015      35.367  31.062  56.281  0.00  0.00     0.053 A 
ATOM     14  C9  LG1 d5015      35.810  30.387  57.434  0.00  0.00     0.055 A 
ATOM     15  C11 LG1 d5015      34.016  31.583  56.010  0.00  0.00     0.072 C 
ATOM     16  C8  LG1 d5015      37.134  30.117  57.186  0.00  0.00     0.035 A 
ATOM     17  C12 LG1 d5015      38.143  29.428  58.013  0.00  0.00     0.070 C 
ENDBRANCH   1  11
BRANCH   4  18
ATOM     18  C7  LG1 d5015      42.355  30.477  53.220  0.00  0.00     0.423 C 
ATOM     19  F4  LG1 d5015      42.935  31.704  53.071  0.00  0.00    -0.166 F 
ATOM     20  F3  LG1 d5015      42.268  29.968  51.956  0.00  0.00    -0.166 F 
ATOM     21  F5  LG1 d5015      43.284  29.709  53.861  0.00  0.00    -0.166 F 
ENDBRANCH   4  18
TORSDOF 2
ENDMDL
