REMARK INTER + INTRA:          -5.361
REMARK INTER:                  -5.168
REMARK INTRA:                  -0.193
REMARK UNBOUND:                -0.186
REMARK  1 active torsions:
REMARK  status: ('A' for Active; 'I' for Inactive)
REMARK    1  A    between atoms: C1_1  and  N1_10 
ROOT
ATOM      1  C1  LG1 d5015      39.973  31.158  55.087  0.00  0.00     0.056 A 
ATOM      2  C2  LG1 d5015      39.425  32.224  55.800  0.00  0.00    -0.033 A 
ATOM      3  C3  LG1 d5015      38.076  32.204  56.157  0.00  0.00     0.028 A 
ATOM      4  C4  LG1 d5015      37.277  31.119  55.801  0.00  0.00     0.012 A 
ATOM      5  C5  LG1 d5015      37.826  30.052  55.085  0.00  0.00     0.028 A 
ATOM      6  C6  LG1 d5015      39.173  30.073  54.730  0.00  0.00    -0.033 A 
ATOM      7  C7  LG1 d5015      39.732  28.917  53.964  0.00  0.00     0.050 C 
ATOM      8 BR1  LG1 d5015      35.449  31.092  56.282  0.00  0.00    -0.051 Br
ATOM      9  C8  LG1 d5015      40.257  33.400  56.198  0.00  0.00     0.050 C 
ENDROOT
BRANCH   1  10
ATOM     10  N1  LG1 d5015      41.362  31.178  54.721  0.00  0.00    -0.265 N 
ATOM     11  C11 LG1 d5015      42.385  30.646  55.505  0.00  0.00     0.148 C 
ATOM     12  S2  LG1 d5015      42.312  29.683  56.875  0.00  0.00    -0.052 SA
ATOM     13  S1  LG1 d5015      43.941  31.039  54.782  0.00  0.00    -0.090 SA
ATOM     14  C10 LG1 d5015      43.217  31.659  53.263  0.00  0.00     0.185 C 
ATOM     15  C9  LG1 d5015      41.741  31.779  53.513  0.00  0.00     0.239 C 
ATOM     16  O1  LG1 d5015      41.018  32.367  52.712  0.00  0.00    -0.272 OA
ENDBRANCH   1  10
TORSDOF 1
ENDMDL
