REMARK INTER + INTRA:          -5.736
REMARK INTER:                  -5.566
REMARK INTRA:                  -0.170
REMARK UNBOUND:                -0.169
REMARK  1 active torsions:
REMARK  status: ('A' for Active; 'I' for Inactive)
REMARK    1  A    between atoms: C10_13  and  C11_14 
ROOT
ATOM      1  C1  LG1 d5015      38.541  33.297  55.789  0.00  0.00     0.018 C 
ATOM      2  C2  LG1 d5015      39.824  32.761  55.271  0.00  0.00     0.193 C 
ATOM      3  C3  LG1 d5015      39.807  31.313  54.975  0.00  0.00     0.049 A 
ATOM      4  C4  LG1 d5015      40.982  30.663  54.588  0.00  0.00     0.037 A 
ATOM      5  C5  LG1 d5015      40.944  29.310  54.252  0.00  0.00     0.012 A 
ATOM      6  C6  LG1 d5015      39.739  28.608  54.291  0.00  0.00     0.022 A 
ATOM      7  C7  LG1 d5015      38.565  29.259  54.673  0.00  0.00     0.039 A 
ATOM      8  C8  LG1 d5015      38.600  30.606  55.032  0.00  0.00     0.083 A 
ATOM      9  O1  LG1 d5015      37.409  31.186  55.381  0.00  0.00    -0.346 OA
ATOM     10  C9  LG1 d5015      37.560  32.284  56.286  0.00  0.00     0.218 C 
ATOM     11 BR1  LG1 d5015      42.537  28.416  53.758  0.00  0.00    -0.051 Br
ATOM     12  O2  LG1 d5015      40.824  33.442  55.099  0.00  0.00    -0.287 OA
ATOM     13  C10 LG1 d5015      38.334  34.619  55.790  0.00  0.00     0.025 C 
ENDROOT
BRANCH  13  14
ATOM     14  C11 LG1 d5015      37.140  35.254  56.262  0.00  0.00    -0.029 A 
ATOM     15  C14 LG1 d5015      36.993  35.704  57.555  0.00  0.00     0.061 A 
ATOM     16  S1  LG1 d5015      35.460  36.418  57.817  0.00  0.00    -0.113 SA
ATOM     17  C13 LG1 d5015      34.987  36.127  56.197  0.00  0.00     0.050 A 
ATOM     18  C12 LG1 d5015      35.977  35.500  55.475  0.00  0.00     0.019 A 
ENDBRANCH  13  14
TORSDOF 1
ENDMDL
