REMARK INTER + INTRA:          -5.448
REMARK INTER:                  -5.364
REMARK INTRA:                  -0.085
REMARK UNBOUND:                -0.169
REMARK  1 active torsions:
REMARK  status: ('A' for Active; 'I' for Inactive)
REMARK    1  A    between atoms: C10_13  and  C11_14 
ROOT
ATOM      1  C1  LG1 d5015      40.632  34.754  56.523  0.00  0.00     0.018 C 
ATOM      2  C2  LG1 d5015      40.861  33.299  56.699  0.00  0.00     0.193 C 
ATOM      3  C3  LG1 d5015      40.846  32.520  55.443  0.00  0.00     0.049 A 
ATOM      4  C4  LG1 d5015      40.937  31.127  55.482  0.00  0.00     0.037 A 
ATOM      5  C5  LG1 d5015      40.984  30.404  54.289  0.00  0.00     0.012 A 
ATOM      6  C6  LG1 d5015      40.950  31.068  53.062  0.00  0.00     0.022 A 
ATOM      7  C7  LG1 d5015      40.863  32.460  53.025  0.00  0.00     0.039 A 
ATOM      8  C8  LG1 d5015      40.794  33.187  54.213  0.00  0.00     0.083 A 
ATOM      9  O1  LG1 d5015      40.727  34.551  54.104  0.00  0.00    -0.346 OA
ATOM     10  C9  LG1 d5015      40.060  35.173  55.207  0.00  0.00     0.218 C 
ATOM     11 BR1  LG1 d5015      41.076  28.515  54.334  0.00  0.00    -0.051 Br
ATOM     12  O2  LG1 d5015      41.046  32.768  57.785  0.00  0.00    -0.287 OA
ATOM     13  C10 LG1 d5015      40.934  35.593  57.521  0.00  0.00     0.025 C 
ENDROOT
BRANCH  13  14
ATOM     14  C11 LG1 d5015      40.760  37.014  57.470  0.00  0.00    -0.029 A 
ATOM     15  C14 LG1 d5015      39.795  37.676  58.196  0.00  0.00     0.061 A 
ATOM     16  S1  LG1 d5015      39.835  39.365  57.927  0.00  0.00    -0.113 SA
ATOM     17  C13 LG1 d5015      41.146  39.216  56.836  0.00  0.00     0.050 A 
ATOM     18  C12 LG1 d5015      41.544  37.907  56.682  0.00  0.00     0.019 A 
ENDBRANCH  13  14
TORSDOF 1
ENDMDL
