REMARK INTER + INTRA:          -5.467
REMARK INTER:                  -5.300
REMARK INTRA:                  -0.168
REMARK UNBOUND:                -0.080
REMARK  1 active torsions:
REMARK  status: ('A' for Active; 'I' for Inactive)
REMARK    1  A    between atoms: C10_13  and  C11_14 
ROOT
ATOM      1  C1  LG1 d5015      38.013  31.288  56.126  0.00  0.00     0.018 C 
ATOM      2  C2  LG1 d5015      39.199  32.023  55.618  0.00  0.00     0.193 C 
ATOM      3  C3  LG1 d5015      40.093  31.221  54.755  0.00  0.00     0.049 A 
ATOM      4  C4  LG1 d5015      41.299  31.760  54.305  0.00  0.00     0.037 A 
ATOM      5  C5  LG1 d5015      42.108  31.019  53.442  0.00  0.00     0.012 A 
ATOM      6  C6  LG1 d5015      41.710  29.750  53.022  0.00  0.00     0.022 A 
ATOM      7  C7  LG1 d5015      40.502  29.213  53.469  0.00  0.00     0.039 A 
ATOM      8  C8  LG1 d5015      39.700  29.940  54.349  0.00  0.00     0.083 A 
ATOM      9  O1  LG1 d5015      38.520  29.361  54.735  0.00  0.00    -0.346 OA
ATOM     10  C9  LG1 d5015      38.072  29.798  56.023  0.00  0.00     0.218 C 
ATOM     11 BR1  LG1 d5015      43.759  31.731  52.853  0.00  0.00    -0.051 Br
ATOM     12  O2  LG1 d5015      39.436  33.193  55.881  0.00  0.00    -0.287 OA
ATOM     13  C10 LG1 d5015      36.985  31.974  56.639  0.00  0.00     0.025 C 
ENDROOT
BRANCH  13  14
ATOM     14  C11 LG1 d5015      35.790  31.380  57.158  0.00  0.00    -0.029 A 
ATOM     15  C14 LG1 d5015      35.617  31.092  58.493  0.00  0.00     0.061 A 
ATOM     16  S1  LG1 d5015      34.088  30.390  58.806  0.00  0.00    -0.113 SA
ATOM     17  C13 LG1 d5015      33.651  30.469  57.153  0.00  0.00     0.050 A 
ATOM     18  C12 LG1 d5015      34.651  31.020  56.381  0.00  0.00     0.019 A 
ENDBRANCH  13  14
TORSDOF 1
ENDMDL
