REMARK INTER + INTRA:          -5.459
REMARK INTER:                  -5.306
REMARK INTRA:                  -0.154
REMARK UNBOUND:                -0.135
REMARK  1 active torsions:
REMARK  status: ('A' for Active; 'I' for Inactive)
REMARK    1  A    between atoms: C10_13  and  C11_14 
ROOT
ATOM      1  C1  LG1 d5015      38.632  31.042  55.336  0.00  0.00     0.018 C 
ATOM      2  C2  LG1 d5015      37.220  31.374  55.652  0.00  0.00     0.193 C 
ATOM      3  C3  LG1 d5015      37.002  32.769  56.089  0.00  0.00     0.049 A 
ATOM      4  C4  LG1 d5015      35.739  33.178  56.523  0.00  0.00     0.037 A 
ATOM      5  C5  LG1 d5015      35.528  34.511  56.876  0.00  0.00     0.012 A 
ATOM      6  C6  LG1 d5015      36.569  35.436  56.788  0.00  0.00     0.022 A 
ATOM      7  C7  LG1 d5015      37.830  35.027  56.351  0.00  0.00     0.039 A 
ATOM      8  C8  LG1 d5015      38.053  33.692  56.017  0.00  0.00     0.083 A 
ATOM      9  O1  LG1 d5015      39.309  33.363  55.580  0.00  0.00    -0.346 OA
ATOM     10  C9  LG1 d5015      39.660  32.000  55.844  0.00  0.00     0.218 C 
ATOM     11 BR1  LG1 d5015      33.828  35.065  57.494  0.00  0.00    -0.051 Br
ATOM     12  O2  LG1 d5015      36.300  30.574  55.566  0.00  0.00    -0.287 OA
ATOM     13  C10 LG1 d5015      38.906  29.934  54.638  0.00  0.00     0.025 C 
ENDROOT
BRANCH  13  14
ATOM     14  C11 LG1 d5015      40.224  29.509  54.272  0.00  0.00    -0.029 A 
ATOM     15  C14 LG1 d5015      40.916  28.540  54.962  0.00  0.00     0.061 A 
ATOM     16  S1  LG1 d5015      42.460  28.248  54.286  0.00  0.00    -0.113 SA
ATOM     17  C13 LG1 d5015      42.208  29.421  53.065  0.00  0.00     0.050 A 
ATOM     18  C12 LG1 d5015      40.973  30.020  53.172  0.00  0.00     0.019 A 
ENDBRANCH  13  14
TORSDOF 1
ENDMDL
