REMARK INTER + INTRA:          -6.069
REMARK INTER:                  -5.935
REMARK INTRA:                  -0.134
REMARK UNBOUND:                -0.080
REMARK  1 active torsions:
REMARK  status: ('A' for Active; 'I' for Inactive)
REMARK    1  A    between atoms: C10_13  and  C11_14 
ROOT
ATOM      1  C1  LG1 d5015      40.914  30.885  54.585  0.00  0.00     0.018 C 
ATOM      2  C2  LG1 d5015      40.765  29.517  54.029  0.00  0.00     0.193 C 
ATOM      3  C3  LG1 d5015      41.965  28.665  54.171  0.00  0.00     0.049 A 
ATOM      4  C4  LG1 d5015      41.994  27.395  53.591  0.00  0.00     0.037 A 
ATOM      5  C5  LG1 d5015      43.106  26.574  53.781  0.00  0.00     0.012 A 
ATOM      6  C6  LG1 d5015      44.181  27.013  54.555  0.00  0.00     0.022 A 
ATOM      7  C7  LG1 d5015      44.149  28.281  55.137  0.00  0.00     0.039 A 
ATOM      8  C8  LG1 d5015      43.050  29.115  54.933  0.00  0.00     0.083 A 
ATOM      9  O1  LG1 d5015      43.076  30.339  55.548  0.00  0.00    -0.346 OA
ATOM     10  C9  LG1 d5015      42.313  31.334  54.857  0.00  0.00     0.218 C 
ATOM     11 BR1  LG1 d5015      43.166  24.865  52.972  0.00  0.00    -0.051 Br
ATOM     12  O2  LG1 d5015      39.745  29.110  53.493  0.00  0.00    -0.287 OA
ATOM     13  C10 LG1 d5015      39.822  31.628  54.803  0.00  0.00     0.025 C 
ENDROOT
BRANCH  13  14
ATOM     14  C11 LG1 d5015      39.837  32.958  55.335  0.00  0.00    -0.029 A 
ATOM     15  C14 LG1 d5015      39.561  33.238  56.654  0.00  0.00     0.061 A 
ATOM     16  S1  LG1 d5015      39.660  34.914  56.989  0.00  0.00    -0.113 SA
ATOM     17  C13 LG1 d5015      40.071  35.270  55.366  0.00  0.00     0.050 A 
ATOM     18  C12 LG1 d5015      40.133  34.135  54.588  0.00  0.00     0.019 A 
ENDBRANCH  13  14
TORSDOF 1
ENDMDL
