REMARK INTER + INTRA:          -4.724
REMARK INTER:                  -4.539
REMARK INTRA:                  -0.186
REMARK UNBOUND:                -0.186
REMARK  1 active torsions:
REMARK  status: ('A' for Active; 'I' for Inactive)
REMARK    1  A    between atoms: C1_1  and  N1_10 
ROOT
ATOM      1  C1  LG1 d5015      40.243  32.211  55.692  0.00  0.00     0.056 A 
ATOM      2  C2  LG1 d5015      40.313  30.991  56.363  0.00  0.00    -0.033 A 
ATOM      3  C3  LG1 d5015      40.753  29.850  55.691  0.00  0.00     0.028 A 
ATOM      4  C4  LG1 d5015      41.123  29.929  54.349  0.00  0.00     0.012 A 
ATOM      5  C5  LG1 d5015      41.052  31.151  53.677  0.00  0.00     0.028 A 
ATOM      6  C6  LG1 d5015      40.611  32.290  54.349  0.00  0.00    -0.033 A 
ATOM      7  C7  LG1 d5015      40.546  33.584  53.603  0.00  0.00     0.050 C 
ATOM      8 BR1  LG1 d5015      41.718  28.383  53.439  0.00  0.00    -0.051 Br
ATOM      9  C8  LG1 d5015      39.925  30.874  57.802  0.00  0.00     0.050 C 
ENDROOT
BRANCH   1  10
ATOM     10  N1  LG1 d5015      39.791  33.386  56.383  0.00  0.00    -0.265 N 
ATOM     11  C11 LG1 d5015      38.454  33.772  56.477  0.00  0.00     0.148 C 
ATOM     12  S2  LG1 d5015      37.055  32.944  56.072  0.00  0.00    -0.052 SA
ATOM     13  S1  LG1 d5015      38.355  35.353  57.245  0.00  0.00    -0.090 SA
ATOM     14  C10 LG1 d5015      40.085  35.368  57.718  0.00  0.00     0.185 C 
ATOM     15  C9  LG1 d5015      40.734  34.223  56.995  0.00  0.00     0.239 C 
ATOM     16  O1  LG1 d5015      41.957  34.111  56.973  0.00  0.00    -0.272 OA
ENDBRANCH   1  10
TORSDOF 1
ENDMDL
