REMARK INTER + INTRA:          -5.087
REMARK INTER:                  -4.963
REMARK INTRA:                  -0.124
REMARK UNBOUND:                -0.135
REMARK  1 active torsions:
REMARK  status: ('A' for Active; 'I' for Inactive)
REMARK    1  A    between atoms: C10_13  and  C11_14 
ROOT
ATOM      1  C1  LG1 d5015      37.951  30.739  55.321  0.00  0.00     0.018 C 
ATOM      2  C2  LG1 d5015      38.902  29.687  54.883  0.00  0.00     0.193 C 
ATOM      3  C3  LG1 d5015      40.306  29.927  55.281  0.00  0.00     0.049 A 
ATOM      4  C4  LG1 d5015      41.315  29.070  54.835  0.00  0.00     0.037 A 
ATOM      5  C5  LG1 d5015      42.628  29.268  55.265  0.00  0.00     0.012 A 
ATOM      6  C6  LG1 d5015      42.932  30.309  56.142  0.00  0.00     0.022 A 
ATOM      7  C7  LG1 d5015      41.922  31.162  56.590  0.00  0.00     0.039 A 
ATOM      8  C8  LG1 d5015      40.611  30.983  56.147  0.00  0.00     0.083 A 
ATOM      9  O1  LG1 d5015      39.667  31.845  56.639  0.00  0.00    -0.346 OA
ATOM     10  C9  LG1 d5015      38.560  32.034  55.752  0.00  0.00     0.218 C 
ATOM     11 BR1  LG1 d5015      44.005  28.131  54.641  0.00  0.00    -0.051 Br
ATOM     12  O2  LG1 d5015      38.572  28.698  54.245  0.00  0.00    -0.287 OA
ATOM     13  C10 LG1 d5015      36.637  30.486  55.305  0.00  0.00     0.025 C 
ENDROOT
BRANCH  13  14
ATOM     14  C11 LG1 d5015      35.625  31.417  55.703  0.00  0.00    -0.029 A 
ATOM     15  C14 LG1 d5015      35.295  31.645  57.020  0.00  0.00     0.061 A 
ATOM     16  S1  LG1 d5015      34.053  32.812  57.179  0.00  0.00    -0.113 SA
ATOM     17  C13 LG1 d5015      33.952  33.015  55.483  0.00  0.00     0.050 A 
ATOM     18  C12 LG1 d5015      34.846  32.212  54.812  0.00  0.00     0.019 A 
ENDBRANCH  13  14
TORSDOF 1
ENDMDL
