MODEL 1
REMARK VINA RESULT:    -5.614      0.000      0.000
REMARK INTER + INTRA:          -6.098
REMARK INTER:                  -5.940
REMARK INTRA:                  -0.158
REMARK UNBOUND:                -0.156
REMARK  1 active torsions:
REMARK  status: ('A' for Active; 'I' for Inactive)
REMARK    1  A    between atoms: C10_13  and  C11_14 
ROOT
ATOM      1  C1  LG1 d5015      40.917  30.892  54.555  0.00  0.00     0.018 C 
ATOM      2  C2  LG1 d5015      40.765  29.520  54.010  0.00  0.00     0.193 C 
ATOM      3  C3  LG1 d5015      41.967  28.671  54.146  0.00  0.00     0.049 A 
ATOM      4  C4  LG1 d5015      41.993  27.397  53.574  0.00  0.00     0.037 A 
ATOM      5  C5  LG1 d5015      43.108  26.579  53.758  0.00  0.00     0.012 A 
ATOM      6  C6  LG1 d5015      44.190  27.025  54.518  0.00  0.00     0.022 A 
ATOM      7  C7  LG1 d5015      44.162  28.296  55.093  0.00  0.00     0.039 A 
ATOM      8  C8  LG1 d5015      43.059  29.127  54.894  0.00  0.00     0.083 A 
ATOM      9  O1  LG1 d5015      43.091  30.355  55.500  0.00  0.00    -0.346 OA
ATOM     10  C9  LG1 d5015      42.319  31.344  54.810  0.00  0.00     0.218 C 
ATOM     11 BR1  LG1 d5015      43.162  24.864  52.961  0.00  0.00    -0.051 Br
ATOM     12  O2  LG1 d5015      39.740  29.108  53.487  0.00  0.00    -0.287 OA
ATOM     13  C10 LG1 d5015      39.827  31.635  54.779  0.00  0.00     0.025 C 
ENDROOT
BRANCH  13  14
ATOM     14  C11 LG1 d5015      39.845  32.968  55.302  0.00  0.00    -0.029 A 
ATOM     15  C14 LG1 d5015      39.675  33.249  56.638  0.00  0.00     0.061 A 
ATOM     16  S1  LG1 d5015      39.748  34.930  56.956  0.00  0.00    -0.113 SA
ATOM     17  C13 LG1 d5015      40.008  35.287  55.303  0.00  0.00     0.050 A 
ATOM     18  C12 LG1 d5015      40.039  34.149  54.528  0.00  0.00     0.019 A 
ENDBRANCH  13  14
TORSDOF 1
ENDMDL
MODEL 2
REMARK VINA RESULT:    -5.271      2.889      4.348
REMARK INTER + INTRA:          -5.735
REMARK INTER:                  -5.566
REMARK INTRA:                  -0.169
REMARK UNBOUND:                -0.156
REMARK  1 active torsions:
REMARK  status: ('A' for Active; 'I' for Inactive)
REMARK    1  A    between atoms: C10_13  and  C11_14 
ROOT
ATOM      1  C1  LG1 d5015      38.553  33.286  55.801  0.00  0.00     0.018 C 
ATOM      2  C2  LG1 d5015      39.841  32.758  55.286  0.00  0.00     0.193 C 
ATOM      3  C3  LG1 d5015      39.833  31.311  54.984  0.00  0.00     0.049 A 
ATOM      4  C4  LG1 d5015      41.012  30.669  54.600  0.00  0.00     0.037 A 
ATOM      5  C5  LG1 d5015      40.983  29.317  54.258  0.00  0.00     0.012 A 
ATOM      6  C6  LG1 d5015      39.781  28.609  54.290  0.00  0.00     0.022 A 
ATOM      7  C7  LG1 d5015      38.602  29.252  54.670  0.00  0.00     0.039 A 
ATOM      8  C8  LG1 d5015      38.629  30.598  55.034  0.00  0.00     0.083 A 
ATOM      9  O1  LG1 d5015      37.433  31.171  55.381  0.00  0.00    -0.346 OA
ATOM     10  C9  LG1 d5015      37.576  32.267  56.291  0.00  0.00     0.218 C 
ATOM     11 BR1  LG1 d5015      42.582  28.433  53.766  0.00  0.00    -0.051 Br
ATOM     12  O2  LG1 d5015      40.838  33.446  55.120  0.00  0.00    -0.287 OA
ATOM     13  C10 LG1 d5015      38.339  34.607  55.806  0.00  0.00     0.025 C 
ENDROOT
BRANCH  13  14
ATOM     14  C11 LG1 d5015      37.140  35.234  56.276  0.00  0.00    -0.029 A 
ATOM     15  C14 LG1 d5015      36.987  35.678  57.570  0.00  0.00     0.061 A 
ATOM     16  S1  LG1 d5015      35.448  36.383  57.829  0.00  0.00    -0.113 SA
ATOM     17  C13 LG1 d5015      34.983  36.097  56.207  0.00  0.00     0.050 A 
ATOM     18  C12 LG1 d5015      35.980  35.478  55.486  0.00  0.00     0.019 A 
ENDBRANCH  13  14
TORSDOF 1
ENDMDL
MODEL 3
REMARK VINA RESULT:    -5.084      3.735      4.887
REMARK INTER + INTRA:          -5.537
REMARK INTER:                  -5.402
REMARK INTRA:                  -0.135
REMARK UNBOUND:                -0.156
REMARK  1 active torsions:
REMARK  status: ('A' for Active; 'I' for Inactive)
REMARK    1  A    between atoms: C10_13  and  C11_14 
ROOT
ATOM      1  C1  LG1 d5015      38.098  31.825  55.824  0.00  0.00     0.018 C 
ATOM      2  C2  LG1 d5015      39.364  32.457  55.375  0.00  0.00     0.193 C 
ATOM      3  C3  LG1 d5015      40.260  31.560  54.615  0.00  0.00     0.049 A 
ATOM      4  C4  LG1 d5015      41.529  31.998  54.233  0.00  0.00     0.037 A 
ATOM      5  C5  LG1 d5015      42.345  31.167  53.464  0.00  0.00     0.012 A 
ATOM      6  C6  LG1 d5015      41.894  29.907  53.070  0.00  0.00     0.022 A 
ATOM      7  C7  LG1 d5015      40.623  29.471  53.450  0.00  0.00     0.039 A 
ATOM      8  C8  LG1 d5015      39.812  30.288  54.237  0.00  0.00     0.083 A 
ATOM      9  O1  LG1 d5015      38.571  29.805  54.559  0.00  0.00    -0.346 OA
ATOM     10  C9  LG1 d5015      38.063  30.331  55.790  0.00  0.00     0.218 C 
ATOM     11 BR1  LG1 d5015      44.078  31.742  52.969  0.00  0.00    -0.051 Br
ATOM     12  O2  LG1 d5015      39.659  33.620  55.604  0.00  0.00    -0.287 OA
ATOM     13  C10 LG1 d5015      37.085  32.599  56.231  0.00  0.00     0.025 C 
ENDROOT
BRANCH  13  14
ATOM     14  C11 LG1 d5015      35.819  32.108  56.685  0.00  0.00    -0.029 A 
ATOM     15  C14 LG1 d5015      35.473  32.051  58.016  0.00  0.00     0.061 A 
ATOM     16  S1  LG1 d5015      33.898  31.420  58.244  0.00  0.00    -0.113 SA
ATOM     17  C13 LG1 d5015      33.673  31.222  56.559  0.00  0.00     0.050 A 
ATOM     18  C12 LG1 d5015      34.775  31.629  55.841  0.00  0.00     0.019 A 
ENDBRANCH  13  14
TORSDOF 1
ENDMDL
MODEL 4
REMARK VINA RESULT:    -4.996      3.337      4.813
REMARK INTER + INTRA:          -5.444
REMARK INTER:                  -5.328
REMARK INTRA:                  -0.117
REMARK UNBOUND:                -0.156
REMARK  1 active torsions:
REMARK  status: ('A' for Active; 'I' for Inactive)
REMARK    1  A    between atoms: C10_13  and  C11_14 
ROOT
ATOM      1  C1  LG1 d5015      39.641  34.556  56.694  0.00  0.00     0.018 C 
ATOM      2  C2  LG1 d5015      39.631  33.072  56.675  0.00  0.00     0.193 C 
ATOM      3  C3  LG1 d5015      40.047  32.473  55.390  0.00  0.00     0.049 A 
ATOM      4  C4  LG1 d5015      39.974  31.091  55.205  0.00  0.00     0.037 A 
ATOM      5  C5  LG1 d5015      40.426  30.528  54.010  0.00  0.00     0.012 A 
ATOM      6  C6  LG1 d5015      40.958  31.340  53.007  0.00  0.00     0.022 A 
ATOM      7  C7  LG1 d5015      41.034  32.721  53.194  0.00  0.00     0.039 A 
ATOM      8  C8  LG1 d5015      40.564  33.291  54.378  0.00  0.00     0.083 A 
ATOM      9  O1  LG1 d5015      40.684  34.650  54.502  0.00  0.00    -0.346 OA
ATOM     10  C9  LG1 d5015      39.695  35.227  55.360  0.00  0.00     0.218 C 
ATOM     11 BR1  LG1 d5015      40.301  28.660  53.741  0.00  0.00    -0.051 Br
ATOM     12  O2  LG1 d5015      39.307  32.383  57.632  0.00  0.00    -0.287 OA
ATOM     13  C10 LG1 d5015      39.596  35.198  57.867  0.00  0.00     0.025 C 
ENDROOT
BRANCH  13  14
ATOM     14  C11 LG1 d5015      39.602  36.623  58.014  0.00  0.00    -0.029 A 
ATOM     15  C14 LG1 d5015      38.478  37.344  58.347  0.00  0.00     0.061 A 
ATOM     16  S1  LG1 d5015      38.798  39.022  58.449  0.00  0.00    -0.113 SA
ATOM     17  C13 LG1 d5015      40.445  38.789  58.047  0.00  0.00     0.050 A 
ATOM     18  C12 LG1 d5015      40.742  37.460  57.841  0.00  0.00     0.019 A 
ENDBRANCH  13  14
TORSDOF 1
ENDMDL
MODEL 5
REMARK VINA RESULT:    -4.789      5.427      6.978
REMARK INTER + INTRA:          -5.225
REMARK INTER:                  -5.069
REMARK INTRA:                  -0.156
REMARK UNBOUND:                -0.156
REMARK  1 active torsions:
REMARK  status: ('A' for Active; 'I' for Inactive)
REMARK    1  A    between atoms: C10_13  and  C11_14 
ROOT
ATOM      1  C1  LG1 d5015      34.870  33.956  55.798  0.00  0.00     0.018 C 
ATOM      2  C2  LG1 d5015      35.169  32.518  55.579  0.00  0.00     0.193 C 
ATOM      3  C3  LG1 d5015      36.600  32.166  55.693  0.00  0.00     0.049 A 
ATOM      4  C4  LG1 d5015      37.028  30.870  55.400  0.00  0.00     0.037 A 
ATOM      5  C5  LG1 d5015      38.371  30.530  55.567  0.00  0.00     0.012 A 
ATOM      6  C6  LG1 d5015      39.283  31.477  56.035  0.00  0.00     0.022 A 
ATOM      7  C7  LG1 d5015      38.854  32.772  56.331  0.00  0.00     0.039 A 
ATOM      8  C8  LG1 d5015      37.517  33.123  56.145  0.00  0.00     0.083 A 
ATOM      9  O1  LG1 d5015      37.161  34.405  56.471  0.00  0.00    -0.346 OA
ATOM     10  C9  LG1 d5015      36.038  34.886  55.725  0.00  0.00     0.218 C 
ATOM     11 BR1  LG1 d5015      38.963  28.784  55.143  0.00  0.00    -0.051 Br
ATOM     12  O2  LG1 d5015      34.317  31.680  55.325  0.00  0.00    -0.287 OA
ATOM     13  C10 LG1 d5015      33.609  34.336  56.036  0.00  0.00     0.025 C 
ENDROOT
BRANCH  13  14
ATOM     14  C11 LG1 d5015      33.198  35.689  56.262  0.00  0.00    -0.029 A 
ATOM     15  C14 LG1 d5015      33.026  36.217  57.522  0.00  0.00     0.061 A 
ATOM     16  S1  LG1 d5015      32.532  37.855  57.470  0.00  0.00    -0.113 SA
ATOM     17  C13 LG1 d5015      32.547  37.863  55.758  0.00  0.00     0.050 A 
ATOM     18  C12 LG1 d5015      32.921  36.643  55.240  0.00  0.00     0.019 A 
ENDBRANCH  13  14
TORSDOF 1
ENDMDL
