REMARK INTER + INTRA:          -5.354
REMARK INTER:                  -5.154
REMARK INTRA:                  -0.201
REMARK UNBOUND:                -0.203
REMARK  1 active torsions:
REMARK  status: ('A' for Active; 'I' for Inactive)
REMARK    1  A    between atoms: C1_1  and  N1_10 
ROOT
ATOM      1  C1  LG1 d5015      39.963  31.190  55.098  0.00  0.00     0.056 A 
ATOM      2  C2  LG1 d5015      39.170  30.096  54.753  0.00  0.00    -0.033 A 
ATOM      3  C3  LG1 d5015      37.820  30.075  55.106  0.00  0.00     0.028 A 
ATOM      4  C4  LG1 d5015      37.264  31.147  55.803  0.00  0.00     0.012 A 
ATOM      5  C5  LG1 d5015      38.058  32.242  56.148  0.00  0.00     0.028 A 
ATOM      6  C6  LG1 d5015      39.407  32.262  55.796  0.00  0.00    -0.033 A 
ATOM      7  C7  LG1 d5015      40.232  33.448  56.179  0.00  0.00     0.050 C 
ATOM      8 BR1  LG1 d5015      35.435  31.117  56.282  0.00  0.00    -0.051 Br
ATOM      9  C8  LG1 d5015      39.737  28.933  54.005  0.00  0.00     0.050 C 
ENDROOT
BRANCH   1  10
ATOM     10  N1  LG1 d5015      41.351  31.213  54.734  0.00  0.00    -0.265 N 
ATOM     11  C11 LG1 d5015      42.378  30.713  55.534  0.00  0.00     0.148 C 
ATOM     12  S2  LG1 d5015      42.312  29.788  56.930  0.00  0.00    -0.052 SA
ATOM     13  S1  LG1 d5015      43.931  31.101  54.804  0.00  0.00    -0.090 SA
ATOM     14  C10 LG1 d5015      43.205  31.671  53.267  0.00  0.00     0.185 C 
ATOM     15  C9  LG1 d5015      41.727  31.784  53.510  0.00  0.00     0.239 C 
ATOM     16  O1  LG1 d5015      41.000  32.342  52.692  0.00  0.00    -0.272 OA
ENDBRANCH   1  10
TORSDOF 1
ENDMDL
