REMARK INTER + INTRA:          -4.897
REMARK INTER:                  -4.689
REMARK INTRA:                  -0.208
REMARK UNBOUND:                -0.208
REMARK  1 active torsions:
REMARK  status: ('A' for Active; 'I' for Inactive)
REMARK    1  A    between atoms: C1_1  and  N1_10 
ROOT
ATOM      1  C1  LG1 d5015      38.517  30.965  55.709  0.00  0.00     0.056 A 
ATOM      2  C2  LG1 d5015      39.102  32.228  55.782  0.00  0.00    -0.033 A 
ATOM      3  C3  LG1 d5015      40.236  32.516  55.020  0.00  0.00     0.028 A 
ATOM      4  C4  LG1 d5015      40.782  31.541  54.186  0.00  0.00     0.012 A 
ATOM      5  C5  LG1 d5015      40.196  30.276  54.115  0.00  0.00     0.028 A 
ATOM      6  C6  LG1 d5015      39.065  29.989  54.876  0.00  0.00    -0.033 A 
ATOM      7  C7  LG1 d5015      38.459  28.626  54.778  0.00  0.00     0.050 C 
ATOM      8 BR1  LG1 d5015      42.319  31.931  53.156  0.00  0.00    -0.051 Br
ATOM      9  C8  LG1 d5015      38.538  33.294  56.664  0.00  0.00     0.050 C 
ENDROOT
BRANCH   1  10
ATOM     10  N1  LG1 d5015      37.350  30.668  56.491  0.00  0.00    -0.265 N 
ATOM     11  C11 LG1 d5015      37.386  30.104  57.767  0.00  0.00     0.148 C 
ATOM     12  S2  LG1 d5015      38.678  29.845  58.801  0.00  0.00    -0.052 SA
ATOM     13  S1  LG1 d5015      35.746  29.739  58.291  0.00  0.00    -0.090 SA
ATOM     14  C10 LG1 d5015      34.983  30.620  56.929  0.00  0.00     0.185 C 
ATOM     15  C9  LG1 d5015      36.082  30.937  55.956  0.00  0.00     0.239 C 
ATOM     16  O1  LG1 d5015      35.821  31.363  54.834  0.00  0.00    -0.272 OA
ENDBRANCH   1  10
TORSDOF 1
ENDMDL
