REMARK INTER + INTRA:          -5.537
REMARK INTER:                  -5.402
REMARK INTRA:                  -0.135
REMARK UNBOUND:                -0.156
REMARK  1 active torsions:
REMARK  status: ('A' for Active; 'I' for Inactive)
REMARK    1  A    between atoms: C10_13  and  C11_14 
ROOT
ATOM      1  C1  LG1 d5015      38.098  31.825  55.824  0.00  0.00     0.018 C 
ATOM      2  C2  LG1 d5015      39.364  32.457  55.375  0.00  0.00     0.193 C 
ATOM      3  C3  LG1 d5015      40.260  31.560  54.615  0.00  0.00     0.049 A 
ATOM      4  C4  LG1 d5015      41.529  31.998  54.233  0.00  0.00     0.037 A 
ATOM      5  C5  LG1 d5015      42.345  31.167  53.464  0.00  0.00     0.012 A 
ATOM      6  C6  LG1 d5015      41.894  29.907  53.070  0.00  0.00     0.022 A 
ATOM      7  C7  LG1 d5015      40.623  29.471  53.450  0.00  0.00     0.039 A 
ATOM      8  C8  LG1 d5015      39.812  30.288  54.237  0.00  0.00     0.083 A 
ATOM      9  O1  LG1 d5015      38.571  29.805  54.559  0.00  0.00    -0.346 OA
ATOM     10  C9  LG1 d5015      38.063  30.331  55.790  0.00  0.00     0.218 C 
ATOM     11 BR1  LG1 d5015      44.078  31.742  52.969  0.00  0.00    -0.051 Br
ATOM     12  O2  LG1 d5015      39.659  33.620  55.604  0.00  0.00    -0.287 OA
ATOM     13  C10 LG1 d5015      37.085  32.599  56.231  0.00  0.00     0.025 C 
ENDROOT
BRANCH  13  14
ATOM     14  C11 LG1 d5015      35.819  32.108  56.685  0.00  0.00    -0.029 A 
ATOM     15  C14 LG1 d5015      35.473  32.051  58.016  0.00  0.00     0.061 A 
ATOM     16  S1  LG1 d5015      33.898  31.420  58.244  0.00  0.00    -0.113 SA
ATOM     17  C13 LG1 d5015      33.673  31.222  56.559  0.00  0.00     0.050 A 
ATOM     18  C12 LG1 d5015      34.775  31.629  55.841  0.00  0.00     0.019 A 
ENDBRANCH  13  14
TORSDOF 1
ENDMDL
