REMARK INTER + INTRA:          -5.444
REMARK INTER:                  -5.328
REMARK INTRA:                  -0.117
REMARK UNBOUND:                -0.156
REMARK  1 active torsions:
REMARK  status: ('A' for Active; 'I' for Inactive)
REMARK    1  A    between atoms: C10_13  and  C11_14 
ROOT
ATOM      1  C1  LG1 d5015      39.641  34.556  56.694  0.00  0.00     0.018 C 
ATOM      2  C2  LG1 d5015      39.631  33.072  56.675  0.00  0.00     0.193 C 
ATOM      3  C3  LG1 d5015      40.047  32.473  55.390  0.00  0.00     0.049 A 
ATOM      4  C4  LG1 d5015      39.974  31.091  55.205  0.00  0.00     0.037 A 
ATOM      5  C5  LG1 d5015      40.426  30.528  54.010  0.00  0.00     0.012 A 
ATOM      6  C6  LG1 d5015      40.958  31.340  53.007  0.00  0.00     0.022 A 
ATOM      7  C7  LG1 d5015      41.034  32.721  53.194  0.00  0.00     0.039 A 
ATOM      8  C8  LG1 d5015      40.564  33.291  54.378  0.00  0.00     0.083 A 
ATOM      9  O1  LG1 d5015      40.684  34.650  54.502  0.00  0.00    -0.346 OA
ATOM     10  C9  LG1 d5015      39.695  35.227  55.360  0.00  0.00     0.218 C 
ATOM     11 BR1  LG1 d5015      40.301  28.660  53.741  0.00  0.00    -0.051 Br
ATOM     12  O2  LG1 d5015      39.307  32.383  57.632  0.00  0.00    -0.287 OA
ATOM     13  C10 LG1 d5015      39.596  35.198  57.867  0.00  0.00     0.025 C 
ENDROOT
BRANCH  13  14
ATOM     14  C11 LG1 d5015      39.602  36.623  58.014  0.00  0.00    -0.029 A 
ATOM     15  C14 LG1 d5015      38.478  37.344  58.347  0.00  0.00     0.061 A 
ATOM     16  S1  LG1 d5015      38.798  39.022  58.449  0.00  0.00    -0.113 SA
ATOM     17  C13 LG1 d5015      40.445  38.789  58.047  0.00  0.00     0.050 A 
ATOM     18  C12 LG1 d5015      40.742  37.460  57.841  0.00  0.00     0.019 A 
ENDBRANCH  13  14
TORSDOF 1
ENDMDL
