REMARK INTER + INTRA:          -5.353
REMARK INTER:                  -5.212
REMARK INTRA:                  -0.141
REMARK UNBOUND:                -0.141
REMARK  1 active torsions:
REMARK  status: ('A' for Active; 'I' for Inactive)
REMARK    1  A    between atoms: C10_13  and  C11_14 
ROOT
ATOM      1  C1  LG1 d5015      38.875  34.197  56.644  0.00  0.00     0.018 C 
ATOM      2  C2  LG1 d5015      38.938  32.720  56.514  0.00  0.00     0.193 C 
ATOM      3  C3  LG1 d5015      39.656  32.241  55.315  0.00  0.00     0.049 A 
ATOM      4  C4  LG1 d5015      39.689  30.877  55.017  0.00  0.00     0.037 A 
ATOM      5  C5  LG1 d5015      40.420  30.427  53.916  0.00  0.00     0.012 A 
ATOM      6  C6  LG1 d5015      41.123  31.333  53.121  0.00  0.00     0.022 A 
ATOM      7  C7  LG1 d5015      41.092  32.695  53.421  0.00  0.00     0.039 A 
ATOM      8  C8  LG1 d5015      40.345  33.153  54.507  0.00  0.00     0.083 A 
ATOM      9  O1  LG1 d5015      40.373  34.500  54.755  0.00  0.00    -0.346 OA
ATOM     10  C9  LG1 d5015      39.192  34.977  55.409  0.00  0.00     0.218 C 
ATOM     11 BR1  LG1 d5015      40.444  28.584  53.490  0.00  0.00    -0.051 Br
ATOM     12  O2  LG1 d5015      38.442  31.947  57.321  0.00  0.00    -0.287 OA
ATOM     13  C10 LG1 d5015      38.543  34.740  57.821  0.00  0.00     0.025 C 
ENDROOT
BRANCH  13  14
ATOM     14  C11 LG1 d5015      38.449  36.148  58.069  0.00  0.00    -0.029 A 
ATOM     15  C14 LG1 d5015      37.249  36.820  58.121  0.00  0.00     0.061 A 
ATOM     16  S1  LG1 d5015      37.461  38.490  58.435  0.00  0.00    -0.113 SA
ATOM     17  C13 LG1 d5015      39.162  38.317  58.503  0.00  0.00     0.050 A 
ATOM     18  C12 LG1 d5015      39.559  37.015  58.291  0.00  0.00     0.019 A 
ENDBRANCH  13  14
TORSDOF 1
ENDMDL
