REMARK INTER + INTRA:          -5.362
REMARK INTER:                  -5.282
REMARK INTRA:                  -0.080
REMARK UNBOUND:                -0.080
REMARK  1 active torsions:
REMARK  status: ('A' for Active; 'I' for Inactive)
REMARK    1  A    between atoms: C10_13  and  C11_14 
ROOT
ATOM      1  C1  LG1 d5015      39.006  34.277  56.613  0.00  0.00     0.018 C 
ATOM      2  C2  LG1 d5015      39.046  32.799  56.488  0.00  0.00     0.193 C 
ATOM      3  C3  LG1 d5015      39.734  32.305  55.276  0.00  0.00     0.049 A 
ATOM      4  C4  LG1 d5015      39.742  30.940  54.983  0.00  0.00     0.037 A 
ATOM      5  C5  LG1 d5015      40.445  30.476  53.870  0.00  0.00     0.012 A 
ATOM      6  C6  LG1 d5015      41.146  31.369  53.059  0.00  0.00     0.022 A 
ATOM      7  C7  LG1 d5015      41.140  32.733  53.355  0.00  0.00     0.039 A 
ATOM      8  C8  LG1 d5015      40.421  33.205  54.453  0.00  0.00     0.083 A 
ATOM      9  O1  LG1 d5015      40.472  34.552  54.695  0.00  0.00    -0.346 OA
ATOM     10  C9  LG1 d5015      39.311  35.048  55.370  0.00  0.00     0.218 C 
ATOM     11 BR1  LG1 d5015      40.435  28.632  53.450  0.00  0.00    -0.051 Br
ATOM     12  O2  LG1 d5015      38.555  32.035  57.307  0.00  0.00    -0.287 OA
ATOM     13  C10 LG1 d5015      38.704  34.829  57.795  0.00  0.00     0.025 C 
ENDROOT
BRANCH  13  14
ATOM     14  C11 LG1 d5015      38.636  36.238  58.040  0.00  0.00    -0.029 A 
ATOM     15  C14 LG1 d5015      39.755  37.031  58.156  0.00  0.00     0.061 A 
ATOM     16  S1  LG1 d5015      39.353  38.670  58.444  0.00  0.00    -0.113 SA
ATOM     17  C13 LG1 d5015      37.678  38.322  58.415  0.00  0.00     0.050 A 
ATOM     18  C12 LG1 d5015      37.432  36.986  58.189  0.00  0.00     0.019 A 
ENDBRANCH  13  14
TORSDOF 1
ENDMDL
