REMARK INTER + INTRA:          -7.220
REMARK INTER:                  -6.699
REMARK INTRA:                  -0.521
REMARK UNBOUND:                -0.545
REMARK  2 active torsions:
REMARK  status: ('A' for Active; 'I' for Inactive)
REMARK    1  A    between atoms: C1_1  and  N1_15 
REMARK    2  A    between atoms: C7_9  and  C4_4 
ROOT
ATOM      1  C1  LG1 d5015      38.592  30.612  55.285  0.00  0.00     0.141 A 
ATOM      2  C2  LG1 d5015      39.465  31.696  55.383  0.00  0.00     0.187 A 
ATOM      3  C3  LG1 d5015      40.693  31.666  54.722  0.00  0.00     0.175 A 
ATOM      4  C4  LG1 d5015      41.049  30.551  53.964  0.00  0.00     0.131 A 
ATOM      5  C5  LG1 d5015      40.178  29.467  53.866  0.00  0.00     0.175 A 
ATOM      6  C6  LG1 d5015      38.950  29.498  54.526  0.00  0.00     0.187 A 
ATOM      7  F1  LG1 d5015      38.122  28.448  54.422  0.00  0.00    -0.200 F 
ATOM      8  F2  LG1 d5015      40.512  28.390  53.139  0.00  0.00    -0.202 F 
ATOM      9  F6  LG1 d5015      41.524  32.714  54.823  0.00  0.00    -0.202 F 
ATOM     10  F7  LG1 d5015      39.135  32.775  56.109  0.00  0.00    -0.200 F 
ENDROOT
BRANCH   1  11
ATOM     11  N1  LG1 d5015      37.375  30.641  55.940  0.00  0.00    -0.232 N 
ATOM     12  N2  LG1 d5015      36.313  31.216  55.349  0.00  0.00    -0.172 NA
ATOM     13  C10 LG1 d5015      35.343  31.060  56.254  0.00  0.00     0.053 A 
ATOM     14  C9  LG1 d5015      35.782  30.393  57.413  0.00  0.00     0.055 A 
ATOM     15  C11 LG1 d5015      33.990  31.569  55.970  0.00  0.00     0.072 C 
ATOM     16  C8  LG1 d5015      37.110  30.133  57.177  0.00  0.00     0.035 A 
ATOM     17  C12 LG1 d5015      38.118  29.456  58.015  0.00  0.00     0.070 C 
ENDBRANCH   1  11
BRANCH   4  18
ATOM     18  C7  LG1 d5015      42.363  30.519  53.258  0.00  0.00     0.423 C 
ATOM     19  F4  LG1 d5015      42.930  31.751  53.102  0.00  0.00    -0.166 F 
ATOM     20  F3  LG1 d5015      42.295  29.996  51.998  0.00  0.00    -0.166 F 
ATOM     21  F5  LG1 d5015      43.293  29.767  53.916  0.00  0.00    -0.166 F 
ENDBRANCH   4  18
TORSDOF 2
ENDMDL
