REMARK INTER + INTRA:          -6.085
REMARK INTER:                  -5.966
REMARK INTRA:                  -0.119
REMARK UNBOUND:                -0.135
REMARK  1 active torsions:
REMARK  status: ('A' for Active; 'I' for Inactive)
REMARK    1  A    between atoms: C10_13  and  C11_14 
ROOT
ATOM      1  C1  LG1 d5015      40.851  30.866  54.601  0.00  0.00     0.018 C 
ATOM      2  C2  LG1 d5015      40.708  29.491  54.059  0.00  0.00     0.193 C 
ATOM      3  C3  LG1 d5015      41.922  28.656  54.181  0.00  0.00     0.049 A 
ATOM      4  C4  LG1 d5015      41.955  27.382  53.611  0.00  0.00     0.037 A 
ATOM      5  C5  LG1 d5015      43.082  26.577  53.782  0.00  0.00     0.012 A 
ATOM      6  C6  LG1 d5015      44.168  27.037  54.528  0.00  0.00     0.022 A 
ATOM      7  C7  LG1 d5015      44.132  28.310  55.101  0.00  0.00     0.039 A 
ATOM      8  C8  LG1 d5015      43.018  29.127  54.915  0.00  0.00     0.083 A 
ATOM      9  O1  LG1 d5015      43.042  30.356  55.519  0.00  0.00    -0.346 OA
ATOM     10  C9  LG1 d5015      42.250  31.335  54.837  0.00  0.00     0.218 C 
ATOM     11 BR1  LG1 d5015      43.147  24.863  52.987  0.00  0.00    -0.051 Br
ATOM     12  O2  LG1 d5015      39.681  29.066  53.550  0.00  0.00    -0.287 OA
ATOM     13  C10 LG1 d5015      39.754  31.596  54.837  0.00  0.00     0.025 C 
ENDROOT
BRANCH  13  14
ATOM     14  C11 LG1 d5015      39.763  32.930  55.358  0.00  0.00    -0.029 A 
ATOM     15  C14 LG1 d5015      39.469  33.222  56.671  0.00  0.00     0.061 A 
ATOM     16  S1  LG1 d5015      39.565  34.901  56.992  0.00  0.00    -0.113 SA
ATOM     17  C13 LG1 d5015      40.000  35.242  55.373  0.00  0.00     0.050 A 
ATOM     18  C12 LG1 d5015      40.072  34.101  54.605  0.00  0.00     0.019 A 
ENDBRANCH  13  14
TORSDOF 1
ENDMDL
