REMARK INTER + INTRA:          -6.818
REMARK INTER:                  -6.274
REMARK INTRA:                  -0.545
REMARK UNBOUND:                -0.545
REMARK  2 active torsions:
REMARK  status: ('A' for Active; 'I' for Inactive)
REMARK    1  A    between atoms: C1_1  and  N1_15 
REMARK    2  A    between atoms: C7_9  and  C4_4 
ROOT
ATOM      1  C1  LG1 d5015      34.330  32.846  56.305  0.00  0.00     0.141 A 
ATOM      2  C2  LG1 d5015      34.071  32.910  54.935  0.00  0.00     0.187 A 
ATOM      3  C3  LG1 d5015      33.697  34.121  54.352  0.00  0.00     0.175 A 
ATOM      4  C4  LG1 d5015      33.580  35.267  55.138  0.00  0.00     0.131 A 
ATOM      5  C5  LG1 d5015      33.837  35.203  56.507  0.00  0.00     0.175 A 
ATOM      6  C6  LG1 d5015      34.212  33.993  57.090  0.00  0.00     0.187 A 
ATOM      7  F1  LG1 d5015      34.456  33.947  58.408  0.00  0.00    -0.200 F 
ATOM      8  F2  LG1 d5015      33.726  36.300  57.270  0.00  0.00    -0.202 F 
ATOM      9  F6  LG1 d5015      33.452  34.171  53.034  0.00  0.00    -0.202 F 
ATOM     10  F7  LG1 d5015      34.181  31.816  54.168  0.00  0.00    -0.200 F 
ENDROOT
BRANCH   1  11
ATOM     11  N1  LG1 d5015      34.700  31.646  56.884  0.00  0.00    -0.232 N 
ATOM     12  N2  LG1 d5015      33.760  30.834  57.396  0.00  0.00    -0.172 NA
ATOM     13  C10 LG1 d5015      34.471  29.802  57.857  0.00  0.00     0.053 A 
ATOM     14  C9  LG1 d5015      35.854  29.953  57.642  0.00  0.00     0.055 A 
ATOM     15  C11 LG1 d5015      33.783  28.672  58.505  0.00  0.00     0.072 C 
ATOM     16  C8  LG1 d5015      35.970  31.165  57.006  0.00  0.00     0.035 A 
ATOM     17  C12 LG1 d5015      37.165  31.880  56.517  0.00  0.00     0.070 C 
ENDBRANCH   1  11
BRANCH   4  18
ATOM     18  C7  LG1 d5015      33.179  36.561  54.513  0.00  0.00     0.423 C 
ATOM     19  F4  LG1 d5015      32.850  37.527  55.420  0.00  0.00    -0.166 F 
ATOM     20  F3  LG1 d5015      32.092  36.458  53.692  0.00  0.00    -0.166 F 
ATOM     21  F5  LG1 d5015      34.168  37.102  53.744  0.00  0.00    -0.166 F 
ENDBRANCH   4  18
TORSDOF 2
ENDMDL
