REMARK INTER + INTRA:          -5.082
REMARK INTER:                  -4.913
REMARK INTRA:                  -0.169
REMARK UNBOUND:                -0.169
REMARK  1 active torsions:
REMARK  status: ('A' for Active; 'I' for Inactive)
REMARK    1  A    between atoms: C10_13  and  C11_14 
ROOT
ATOM      1  C1  LG1 d5015      38.512  29.987  57.184  0.00  0.00     0.018 C 
ATOM      2  C2  LG1 d5015      39.558  30.916  56.687  0.00  0.00     0.193 C 
ATOM      3  C3  LG1 d5015      40.272  30.445  55.482  0.00  0.00     0.049 A 
ATOM      4  C4  LG1 d5015      41.354  31.172  54.980  0.00  0.00     0.037 A 
ATOM      5  C5  LG1 d5015      41.984  30.753  53.808  0.00  0.00     0.012 A 
ATOM      6  C6  LG1 d5015      41.531  29.619  53.132  0.00  0.00     0.022 A 
ATOM      7  C7  LG1 d5015      40.447  28.895  53.632  0.00  0.00     0.039 A 
ATOM      8  C8  LG1 d5015      39.828  29.296  54.816  0.00  0.00     0.083 A 
ATOM      9  O1  LG1 d5015      38.760  28.550  55.241  0.00  0.00    -0.346 OA
ATOM     10  C9  LG1 d5015      38.574  28.589  56.660  0.00  0.00     0.218 C 
ATOM     11 BR1  LG1 d5015      43.469  31.715  53.139  0.00  0.00    -0.051 Br
ATOM     12  O2  LG1 d5015      39.823  31.985  57.217  0.00  0.00    -0.287 OA
ATOM     13  C10 LG1 d5015      37.597  30.432  58.055  0.00  0.00     0.025 C 
ENDROOT
BRANCH  13  14
ATOM     14  C11 LG1 d5015      36.542  29.635  58.603  0.00  0.00    -0.029 A 
ATOM     15  C14 LG1 d5015      36.671  28.930  59.779  0.00  0.00     0.061 A 
ATOM     16  S1  LG1 d5015      35.242  28.076  60.176  0.00  0.00    -0.113 SA
ATOM     17  C13 LG1 d5015      34.446  28.646  58.772  0.00  0.00     0.050 A 
ATOM     18  C12 LG1 d5015      35.252  29.470  58.020  0.00  0.00     0.019 A 
ENDBRANCH  13  14
TORSDOF 1
ENDMDL
