REMARK INTER + INTRA:          -5.075
REMARK INTER:                  -4.940
REMARK INTRA:                  -0.135
REMARK UNBOUND:                -0.135
REMARK  1 active torsions:
REMARK  status: ('A' for Active; 'I' for Inactive)
REMARK    1  A    between atoms: C10_13  and  C11_14 
ROOT
ATOM      1  C1  LG1 d5015      34.890  33.931  55.841  0.00  0.00     0.018 C 
ATOM      2  C2  LG1 d5015      35.177  32.494  55.604  0.00  0.00     0.193 C 
ATOM      3  C3  LG1 d5015      36.608  32.135  55.681  0.00  0.00     0.049 A 
ATOM      4  C4  LG1 d5015      37.023  30.838  55.369  0.00  0.00     0.037 A 
ATOM      5  C5  LG1 d5015      38.368  30.492  55.502  0.00  0.00     0.012 A 
ATOM      6  C6  LG1 d5015      39.295  31.431  55.956  0.00  0.00     0.022 A 
ATOM      7  C7  LG1 d5015      38.879  32.725  56.272  0.00  0.00     0.039 A 
ATOM      8  C8  LG1 d5015      37.540  33.084  56.120  0.00  0.00     0.083 A 
ATOM      9  O1  LG1 d5015      37.197  34.365  56.464  0.00  0.00    -0.346 OA
ATOM     10  C9  LG1 d5015      36.059  34.856  55.748  0.00  0.00     0.218 C 
ATOM     11 BR1  LG1 d5015      38.942  28.747  55.051  0.00  0.00    -0.051 Br
ATOM     12  O2  LG1 d5015      34.315  31.661  55.363  0.00  0.00    -0.287 OA
ATOM     13  C10 LG1 d5015      33.636  34.315  56.111  0.00  0.00     0.025 C 
ENDROOT
BRANCH  13  14
ATOM     14  C11 LG1 d5015      33.236  35.667  56.357  0.00  0.00    -0.029 A 
ATOM     15  C14 LG1 d5015      32.958  36.561  55.347  0.00  0.00     0.061 A 
ATOM     16  S1  LG1 d5015      32.506  38.096  55.954  0.00  0.00    -0.113 SA
ATOM     17  C13 LG1 d5015      32.682  37.569  57.573  0.00  0.00     0.050 A 
ATOM     18  C12 LG1 d5015      33.076  36.252  57.647  0.00  0.00     0.019 A 
ENDBRANCH  13  14
TORSDOF 1
ENDMDL
