REMARK INTER + INTRA:          -5.124
REMARK INTER:                  -4.963
REMARK INTRA:                  -0.162
REMARK UNBOUND:                -0.169
REMARK  1 active torsions:
REMARK  status: ('A' for Active; 'I' for Inactive)
REMARK    1  A    between atoms: C10_13  and  C11_14 
ROOT
ATOM      1  C1  LG1 d5015      38.850  30.554  55.592  0.00  0.00     0.018 C 
ATOM      2  C2  LG1 d5015      37.523  30.985  56.099  0.00  0.00     0.193 C 
ATOM      3  C3  LG1 d5015      36.920  30.068  57.089  0.00  0.00     0.049 A 
ATOM      4  C4  LG1 d5015      35.626  30.300  57.560  0.00  0.00     0.037 A 
ATOM      5  C5  LG1 d5015      35.087  29.464  58.540  0.00  0.00     0.012 A 
ATOM      6  C6  LG1 d5015      35.839  28.408  59.055  0.00  0.00     0.022 A 
ATOM      7  C7  LG1 d5015      37.133  28.180  58.586  0.00  0.00     0.039 A 
ATOM      8  C8  LG1 d5015      37.669  28.998  57.592  0.00  0.00     0.083 A 
ATOM      9  O1  LG1 d5015      38.951  28.728  57.191  0.00  0.00    -0.346 OA
ATOM     10  C9  LG1 d5015      39.215  29.127  55.841  0.00  0.00     0.218 C 
ATOM     11 BR1  LG1 d5015      33.323  29.754  59.160  0.00  0.00    -0.051 Br
ATOM     12  O2  LG1 d5015      36.959  32.008  55.740  0.00  0.00    -0.287 OA
ATOM     13  C10 LG1 d5015      39.626  31.436  54.951  0.00  0.00     0.025 C 
ENDROOT
BRANCH  13  14
ATOM     14  C11 LG1 d5015      40.922  31.141  54.418  0.00  0.00    -0.029 A 
ATOM     15  C14 LG1 d5015      42.088  31.383  55.109  0.00  0.00     0.061 A 
ATOM     16  S1  LG1 d5015      43.473  30.925  54.214  0.00  0.00    -0.113 SA
ATOM     17  C13 LG1 d5015      42.515  30.400  52.896  0.00  0.00     0.050 A 
ATOM     18  C12 LG1 d5015      41.170  30.571  53.135  0.00  0.00     0.019 A 
ENDBRANCH  13  14
TORSDOF 1
ENDMDL
