ZINC00001099
     RDKit          3D

 19 19  0  0  0  0  0  0  0  0999 V2000
  -36.1746   10.4281  -54.9600 C   0  0  0  0  0  0  0  0  0  0  0  0
  -35.4821   10.6584  -53.7705 C   0  0  0  0  0  0  0  0  0  0  0  0
  -35.4848   11.9399  -53.2171 C   0  0  0  0  0  0  0  0  0  0  0  0
  -36.1399   12.9964  -53.8536 C   0  0  0  0  0  0  0  0  0  0  0  0
  -36.8293   12.7543  -55.0426 C   0  0  0  0  0  0  0  0  0  0  0  0
  -36.8664   11.4671  -55.6077 C   0  0  0  0  0  0  0  0  0  0  0  0
  -37.6411   11.2031  -56.8863 C   0  0  0  0  0  0  0  0  0  0  0  0
  -38.2472   12.1908  -57.4072 O   0  0  0  0  0  1  0  0  0  0  0  0
  -34.6801   12.2290  -51.6704 S   0  0  0  0  0  6  0  0  0  0  0  0
  -33.8026   11.1188  -51.3719 O   0  0  0  0  0  0  0  0  0  0  0  0
  -34.2334   13.6011  -51.6136 O   0  0  0  0  0  0  0  0  0  0  0  0
  -35.9767   12.0675  -50.5978 N   0  0  0  0  0  0  0  0  0  0  0  0
  -37.6317   10.0122  -57.3297 O   0  0  0  0  0  0  0  0  0  0  0  0
  -36.1793    9.4189  -55.3975 H   0  0  0  0  0  0  0  0  0  0  0  0
  -34.9403    9.8395  -53.2747 H   0  0  0  0  0  0  0  0  0  0  0  0
  -36.1129   14.0080  -53.4225 H   0  0  0  0  0  0  0  0  0  0  0  0
  -37.3510   13.5823  -55.5449 H   0  0  0  0  0  0  0  0  0  0  0  0
  -36.7611   11.6008  -51.0752 H   0  0  0  0  0  0  0  0  0  0  0  0
  -35.6837   11.5037  -49.7872 H   0  0  0  0  0  0  0  0  0  0  0  0
  1  6  2  0
  1  2  1  0
  2  3  2  0
  3  4  1  0
  3  9  1  0
  4  5  2  0
  5  6  1  0
  6  7  1  0
  7  8  1  0
  7 13  2  0
  9 10  2  0
  9 11  2  0
  9 12  1  0
  1 14  1  0
  2 15  1  0
  4 16  1  0
  5 17  1  0
 12 18  1  0
 12 19  1  0
M  CHG  1   8  -1
M  END
>  <_TriposChargeType>  (1) 
USER_CHARGES

$$$$
