ZINC00001019
     RDKit          3D

 52 55  0  0  0  0  0  0  0  0999 V2000
  -40.2937    6.5597  -50.8895 C   0  0  0  0  0  0  0  0  0  0  0  0
  -38.5077    7.4577  -52.3786 C   0  0  0  0  0  0  0  0  0  0  0  0
  -37.5560    8.6219  -52.5775 C   0  0  0  0  0  0  0  0  0  0  0  0
  -38.3267    9.9380  -52.7508 C   0  0  0  0  0  0  0  0  0  0  0  0
  -39.2580   10.1808  -51.5616 C   0  0  0  0  0  0  0  0  0  0  0  0
  -40.2021    9.0065  -51.3663 C   0  0  0  0  0  0  0  0  0  0  0  0
  -37.4333   11.0594  -52.9899 N   0  0  0  0  0  0  0  0  0  0  0  0
  -36.7257   11.1477  -54.1984 C   0  0  0  0  0  0  0  0  0  0  0  0
  -37.0604   10.6790  -55.2731 O   0  0  0  0  0  0  0  0  0  0  0  0
  -35.4521   11.8477  -53.9149 C   0  0  0  0  0  0  0  0  0  0  0  0
  -35.4646   12.0347  -52.5855 C   0  0  0  0  0  0  0  0  0  0  0  0
  -36.5807   11.4929  -51.9567 N   0  0  0  0  0  0  0  0  0  0  0  0
  -34.4494   12.7236  -51.7897 C   0  0  0  0  0  0  0  0  0  0  0  0
  -33.7391   12.0224  -50.8067 C   0  0  0  0  0  0  0  0  0  0  0  0
  -32.7684   12.6694  -50.0395 C   0  0  0  0  0  0  0  0  0  0  0  0
  -32.5050   14.0223  -50.2455 C   0  0  0  0  0  0  0  0  0  0  0  0
  -33.2112   14.7300  -51.2165 C   0  0  0  0  0  0  0  0  0  0  0  0
  -34.1815   14.0842  -51.9855 C   0  0  0  0  0  0  0  0  0  0  0  0
  -34.4796   12.2003  -54.9783 C   0  0  0  0  0  0  0  0  0  0  0  0
  -33.5047   11.0809  -55.2600 C   0  0  0  0  0  0  0  0  0  0  0  0
  -33.8033   10.0990  -56.2154 C   0  0  0  0  0  0  0  0  0  0  0  0
  -32.9097    9.0555  -56.4605 C   0  0  0  0  0  0  0  0  0  0  0  0
  -31.7133    8.9792  -55.7500 C   0  0  0  0  0  0  0  0  0  0  0  0
  -31.4097    9.9447  -54.7919 C   0  0  0  0  0  0  0  0  0  0  0  0
  -32.3013   10.9898  -54.5454 C   0  0  0  0  0  0  0  0  0  0  0  0
  -39.4045    7.7364  -51.1954 N   0  0  0  0  0  4  0  0  0  0  0  0
  -40.9453    6.3584  -51.7526 H   0  0  0  0  0  0  0  0  0  0  0  0
  -39.6733    5.6748  -50.6842 H   0  0  0  0  0  0  0  0  0  0  0  0
  -40.9119    6.7865  -50.0083 H   0  0  0  0  0  0  0  0  0  0  0  0
  -39.1221    7.3280  -53.2817 H   0  0  0  0  0  0  0  0  0  0  0  0
  -37.9304    6.5400  -52.1927 H   0  0  0  0  0  0  0  0  0  0  0  0
  -36.8982    8.7030  -51.6997 H   0  0  0  0  0  0  0  0  0  0  0  0
  -36.9641    8.4397  -53.4866 H   0  0  0  0  0  0  0  0  0  0  0  0
  -38.9553    9.8478  -53.6490 H   0  0  0  0  0  0  0  0  0  0  0  0
  -38.6541   10.3130  -50.6518 H   0  0  0  0  0  0  0  0  0  0  0  0
  -39.8547   11.0834  -51.7599 H   0  0  0  0  0  0  0  0  0  0  0  0
  -40.8163    9.1761  -50.4696 H   0  0  0  0  0  0  0  0  0  0  0  0
  -40.8537    8.9120  -52.2475 H   0  0  0  0  0  0  0  0  0  0  0  0
  -36.7491   11.4232  -50.9429 H   0  0  0  0  0  0  0  0  0  0  0  0
  -33.9474   10.9556  -50.6383 H   0  0  0  0  0  0  0  0  0  0  0  0
  -32.2115   12.1112  -49.2725 H   0  0  0  0  0  0  0  0  0  0  0  0
  -31.7396   14.5317  -49.6416 H   0  0  0  0  0  0  0  0  0  0  0  0
  -33.0040   15.7983  -51.3773 H   0  0  0  0  0  0  0  0  0  0  0  0
  -34.7384   14.6471  -52.7490 H   0  0  0  0  0  0  0  0  0  0  0  0
  -35.0326   12.4281  -55.9015 H   0  0  0  0  0  0  0  0  0  0  0  0
  -33.9018   13.0692  -54.6303 H   0  0  0  0  0  0  0  0  0  0  0  0
  -34.7485   10.1516  -56.7756 H   0  0  0  0  0  0  0  0  0  0  0  0
  -33.1499    8.2923  -57.2154 H   0  0  0  0  0  0  0  0  0  0  0  0
  -31.0089    8.1572  -55.9452 H   0  0  0  0  0  0  0  0  0  0  0  0
  -30.4664    9.8831  -54.2295 H   0  0  0  0  0  0  0  0  0  0  0  0
  -32.0585   11.7472  -53.7855 H   0  0  0  0  0  0  0  0  0  0  0  0
  -38.7890    7.8821  -50.3825 H   0  0  0  0  0  0  0  0  0  0  0  0
  1 26  1  0
  2  3  1  0
  2 26  1  0
  3  4  1  0
  4  5  1  0
  4  7  1  0
  5  6  1  0
  6 26  1  0
  7 12  1  0
  7  8  1  0
  8  9  2  0
  8 10  1  0
 10 11  2  0
 10 19  1  0
 11 12  1  0
 11 13  1  0
 13 18  1  0
 13 14  2  0
 14 15  1  0
 15 16  2  0
 16 17  1  0
 17 18  2  0
 19 20  1  0
 20 25  1  0
 20 21  2  0
 21 22  1  0
 22 23  2  0
 23 24  1  0
 24 25  2  0
  1 27  1  0
  1 28  1  0
  1 29  1  0
  2 30  1  0
  2 31  1  0
  3 32  1  0
  3 33  1  0
  4 34  1  0
  5 35  1  0
  5 36  1  0
  6 37  1  0
  6 38  1  0
 12 39  1  0
 14 40  1  0
 15 41  1  0
 16 42  1  0
 17 43  1  0
 18 44  1  0
 19 45  1  0
 19 46  1  0
 21 47  1  0
 22 48  1  0
 23 49  1  0
 24 50  1  0
 25 51  1  0
 26 52  1  0
M  CHG  1  26   1
M  END
>  <_TriposChargeType>  (1) 
USER_CHARGES

$$$$
