REMARK INTER + INTRA:          -9.915
REMARK INTER:                  -9.728
REMARK INTRA:                  -0.187
REMARK UNBOUND:                -0.204
REMARK  1 active torsions:
REMARK  status: ('A' for Active; 'I' for Inactive)
REMARK    1  A    between atoms: C7_7  and  C4_4 
ROOT
ATOM      1  C1  LG1 d5015      43.023  17.825  44.728  0.00  0.00    -0.004 C 
ATOM      2  C2  LG1 d5015      42.169  18.707  43.811  0.00  0.00    -0.001 C 
ATOM      3  C3  LG1 d5015      43.011  19.798  43.051  0.00  0.00    -0.030 C 
ATOM      4  C4  LG1 d5015      41.863  20.417  42.185  0.00  0.00     0.063 C 
ATOM      5  C5  LG1 d5015      40.987  19.195  41.739  0.00  0.00     0.013 C 
ATOM      6  C6  LG1 d5015      41.358  18.004  42.695  0.00  0.00     0.006 C 
ATOM      7  C9  LG1 d5015      44.113  19.192  42.111  0.00  0.00     0.016 C 
ATOM      8  C10 LG1 d5015      43.601  20.716  44.144  0.00  0.00     0.011 C 
ATOM      9  C11 LG1 d5015      44.474  19.908  45.144  0.00  0.00     0.007 C 
ATOM     10  C12 LG1 d5015      43.687  18.746  45.804  0.00  0.00     0.002 C 
ATOM     11  C13 LG1 d5015      44.581  17.950  46.825  0.00  0.00    -0.016 C 
ATOM     12  C14 LG1 d5015      43.719  16.774  47.441  0.00  0.00    -0.068 C 
ATOM     13  C15 LG1 d5015      43.664  16.504  48.732  0.00  0.00     0.053 C 
ATOM     14  C16 LG1 d5015      44.504  17.201  49.694  0.00  0.00     0.149 C 
ATOM     15  C17 LG1 d5015      45.548  18.203  49.212  0.00  0.00     0.084 C 
ATOM     16  C18 LG1 d5015      45.024  18.926  47.947  0.00  0.00     0.022 C 
ATOM     17  O2  LG1 d5015      44.429  16.933  50.907  0.00  0.00    -0.293 OA
ATOM     18  C19 LG1 d5015      42.882  15.934  46.482  0.00  0.00     0.035 C 
ATOM     19  C20 LG1 d5015      42.121  16.797  45.458  0.00  0.00     0.010 C 
ATOM     20  C21 LG1 d5015      45.828  17.272  46.137  0.00  0.00     0.020 C 
ENDROOT
BRANCH   4  21
ATOM     21  C7  LG1 d5015      42.336  21.332  41.043  0.00  0.00     0.128 C 
ATOM     22  O1  LG1 d5015      42.777  22.435  41.288  0.00  0.00    -0.298 OA
ATOM     23  C8  LG1 d5015      42.255  20.850  39.636  0.00  0.00     0.091 C 
ENDBRANCH   4  21
TORSDOF 1
ENDMDL
