REMARK INTER + INTRA:          -9.267
REMARK INTER:                  -9.065
REMARK INTRA:                  -0.202
REMARK UNBOUND:                -0.204
REMARK  1 active torsions:
REMARK  status: ('A' for Active; 'I' for Inactive)
REMARK    1  A    between atoms: C7_7  and  C4_4 
ROOT
ATOM      1  C1  LG1 d5015      42.651  17.994  44.711  0.00  0.00    -0.004 C 
ATOM      2  C2  LG1 d5015      43.265  16.788  45.431  0.00  0.00    -0.001 C 
ATOM      3  C3  LG1 d5015      44.176  17.198  46.647  0.00  0.00    -0.030 C 
ATOM      4  C4  LG1 d5015      44.537  15.765  47.162  0.00  0.00     0.063 C 
ATOM      5  C5  LG1 d5015      43.216  14.933  47.007  0.00  0.00     0.013 C 
ATOM      6  C6  LG1 d5015      42.294  15.735  46.019  0.00  0.00     0.006 C 
ATOM      7  C9  LG1 d5015      43.406  17.983  47.766  0.00  0.00     0.016 C 
ATOM      8  C10 LG1 d5015      45.344  18.013  46.046  0.00  0.00     0.011 C 
ATOM      9  C11 LG1 d5015      44.821  19.255  45.273  0.00  0.00     0.007 C 
ATOM     10  C12 LG1 d5015      43.820  18.871  44.153  0.00  0.00     0.002 C 
ATOM     11  C13 LG1 d5015      43.314  20.139  43.371  0.00  0.00    -0.016 C 
ATOM     12  C14 LG1 d5015      42.286  19.671  42.262  0.00  0.00    -0.068 C 
ATOM     13  C15 LG1 d5015      42.323  20.083  41.007  0.00  0.00     0.053 C 
ATOM     14  C16 LG1 d5015      43.253  21.112  40.569  0.00  0.00     0.149 C 
ATOM     15  C17 LG1 d5015      44.150  21.815  41.584  0.00  0.00     0.084 C 
ATOM     16  C18 LG1 d5015      44.540  20.819  42.705  0.00  0.00     0.022 C 
ATOM     17  O2  LG1 d5015      43.273  21.479  39.380  0.00  0.00    -0.293 OA
ATOM     18  C19 LG1 d5015      41.217  18.662  42.668  0.00  0.00     0.035 C 
ATOM     19  C20 LG1 d5015      41.792  17.510  43.515  0.00  0.00     0.010 C 
ATOM     20  C21 LG1 d5015      42.536  21.152  44.297  0.00  0.00     0.020 C 
ENDROOT
BRANCH   4  21
ATOM     21  C7  LG1 d5015      45.176  15.721  48.560  0.00  0.00     0.128 C 
ATOM     22  O1  LG1 d5015      46.294  16.155  48.734  0.00  0.00    -0.298 OA
ATOM     23  C8  LG1 d5015      44.407  15.150  49.700  0.00  0.00     0.091 C 
ENDBRANCH   4  21
TORSDOF 1
ENDMDL
