REMARK INTER + INTRA:          -8.626
REMARK INTER:                  -8.421
REMARK INTRA:                  -0.205
REMARK UNBOUND:                -0.204
REMARK  1 active torsions:
REMARK  status: ('A' for Active; 'I' for Inactive)
REMARK    1  A    between atoms: C7_7  and  C4_4 
ROOT
ATOM      1  C1  LG1 d5015      43.648  16.432  46.494  0.00  0.00    -0.004 C 
ATOM      2  C2  LG1 d5015      42.853  17.438  45.654  0.00  0.00    -0.001 C 
ATOM      3  C3  LG1 d5015      43.518  18.864  45.611  0.00  0.00    -0.030 C 
ATOM      4  C4  LG1 d5015      42.513  19.560  44.634  0.00  0.00     0.063 C 
ATOM      5  C5  LG1 d5015      42.173  18.471  43.556  0.00  0.00     0.013 C 
ATOM      6  C6  LG1 d5015      42.602  17.088  44.167  0.00  0.00     0.006 C 
ATOM      7  C9  LG1 d5015      44.954  18.863  44.979  0.00  0.00     0.016 C 
ATOM      8  C10 LG1 d5015      43.509  19.379  47.067  0.00  0.00     0.011 C 
ATOM      9  C11 LG1 d5015      44.279  18.413  48.010  0.00  0.00     0.007 C 
ATOM     10  C12 LG1 d5015      43.711  16.970  47.961  0.00  0.00     0.002 C 
ATOM     11  C13 LG1 d5015      44.492  16.010  48.932  0.00  0.00    -0.016 C 
ATOM     12  C14 LG1 d5015      43.870  14.559  48.814  0.00  0.00    -0.068 C 
ATOM     13  C15 LG1 d5015      43.555  13.810  49.855  0.00  0.00     0.053 C 
ATOM     14  C16 LG1 d5015      43.875  14.218  51.214  0.00  0.00     0.149 C 
ATOM     15  C17 LG1 d5015      44.678  15.491  51.462  0.00  0.00     0.084 C 
ATOM     16  C18 LG1 d5015      44.324  16.542  50.381  0.00  0.00     0.022 C 
ATOM     17  O2  LG1 d5015      43.561  13.497  52.179  0.00  0.00    -0.293 OA
ATOM     18  C19 LG1 d5015      43.594  14.019  47.415  0.00  0.00     0.035 C 
ATOM     19  C20 LG1 d5015      42.918  15.065  46.508  0.00  0.00     0.010 C 
ATOM     20  C21 LG1 d5015      46.016  15.871  48.552  0.00  0.00     0.020 C 
ENDROOT
BRANCH   4  21
ATOM     21  C7  LG1 d5015      42.989  20.909  44.069  0.00  0.00     0.128 C 
ATOM     22  O1  LG1 d5015      43.135  21.861  44.806  0.00  0.00    -0.298 OA
ATOM     23  C8  LG1 d5015      43.278  21.035  42.613  0.00  0.00     0.091 C 
ENDBRANCH   4  21
TORSDOF 1
ENDMDL
