REMARK INTER + INTRA:          -9.927
REMARK INTER:                  -9.737
REMARK INTRA:                  -0.190
REMARK UNBOUND:                -0.198
REMARK  1 active torsions:
REMARK  status: ('A' for Active; 'I' for Inactive)
REMARK    1  A    between atoms: C7_7  and  C4_4 
ROOT
ATOM      1  C1  LG1 d5015      43.015  17.818  44.712  0.00  0.00    -0.004 C 
ATOM      2  C2  LG1 d5015      42.159  18.700  43.797  0.00  0.00    -0.001 C 
ATOM      3  C3  LG1 d5015      42.998  19.798  43.042  0.00  0.00    -0.030 C 
ATOM      4  C4  LG1 d5015      41.849  20.416  42.177  0.00  0.00     0.063 C 
ATOM      5  C5  LG1 d5015      40.978  19.191  41.725  0.00  0.00     0.013 C 
ATOM      6  C6  LG1 d5015      41.353  17.998  42.677  0.00  0.00     0.006 C 
ATOM      7  C9  LG1 d5015      44.104  19.200  42.103  0.00  0.00     0.016 C 
ATOM      8  C10 LG1 d5015      43.582  20.714  44.141  0.00  0.00     0.011 C 
ATOM      9  C11 LG1 d5015      44.457  19.906  45.139  0.00  0.00     0.007 C 
ATOM     10  C12 LG1 d5015      43.673  18.738  45.793  0.00  0.00     0.002 C 
ATOM     11  C13 LG1 d5015      44.569  17.941  46.812  0.00  0.00    -0.016 C 
ATOM     12  C14 LG1 d5015      43.710  16.760  47.422  0.00  0.00    -0.068 C 
ATOM     13  C15 LG1 d5015      43.654  16.484  48.713  0.00  0.00     0.053 C 
ATOM     14  C16 LG1 d5015      44.490  17.181  49.678  0.00  0.00     0.149 C 
ATOM     15  C17 LG1 d5015      45.531  18.189  49.203  0.00  0.00     0.084 C 
ATOM     16  C18 LG1 d5015      45.006  18.915  47.939  0.00  0.00     0.022 C 
ATOM     17  O2  LG1 d5015      44.414  16.908  50.890  0.00  0.00    -0.293 OA
ATOM     18  C19 LG1 d5015      42.879  15.919  46.459  0.00  0.00     0.035 C 
ATOM     19  C20 LG1 d5015      42.116  16.784  45.436  0.00  0.00     0.010 C 
ATOM     20  C21 LG1 d5015      45.819  17.271  46.124  0.00  0.00     0.020 C 
ENDROOT
BRANCH   4  21
ATOM     21  C7  LG1 d5015      42.320  21.337  41.040  0.00  0.00     0.128 C 
ATOM     22  O1  LG1 d5015      42.764  22.437  41.290  0.00  0.00    -0.298 OA
ATOM     23  C8  LG1 d5015      42.234  20.863  39.630  0.00  0.00     0.091 C 
ENDBRANCH   4  21
TORSDOF 1
ENDMDL
