REMARK INTER + INTRA:          -9.922
REMARK INTER:                  -9.727
REMARK INTRA:                  -0.195
REMARK UNBOUND:                -0.204
REMARK  1 active torsions:
REMARK  status: ('A' for Active; 'I' for Inactive)
REMARK    1  A    between atoms: C7_7  and  C4_4 
ROOT
ATOM      1  C1  LG1 d5015      43.010  17.808  44.715  0.00  0.00    -0.004 C 
ATOM      2  C2  LG1 d5015      42.174  18.694  43.784  0.00  0.00    -0.001 C 
ATOM      3  C3  LG1 d5015      43.029  19.789  43.046  0.00  0.00    -0.030 C 
ATOM      4  C4  LG1 d5015      41.899  20.411  42.160  0.00  0.00     0.063 C 
ATOM      5  C5  LG1 d5015      41.033  19.189  41.691  0.00  0.00     0.013 C 
ATOM      6  C6  LG1 d5015      41.386  17.995  42.649  0.00  0.00     0.006 C 
ATOM      7  C9  LG1 d5015      44.151  19.189  42.127  0.00  0.00     0.016 C 
ATOM      8  C10 LG1 d5015      43.595  20.703  44.156  0.00  0.00     0.011 C 
ATOM      9  C11 LG1 d5015      44.449  19.892  45.170  0.00  0.00     0.007 C 
ATOM     10  C12 LG1 d5015      43.650  18.726  45.808  0.00  0.00     0.002 C 
ATOM     11  C13 LG1 d5015      44.524  17.926  46.843  0.00  0.00    -0.016 C 
ATOM     12  C14 LG1 d5015      43.651  16.747  47.436  0.00  0.00    -0.068 C 
ATOM     13  C15 LG1 d5015      43.570  16.470  48.725  0.00  0.00     0.053 C 
ATOM     14  C16 LG1 d5015      44.390  17.164  49.707  0.00  0.00     0.149 C 
ATOM     15  C17 LG1 d5015      45.442  18.170  49.251  0.00  0.00     0.084 C 
ATOM     16  C18 LG1 d5015      44.944  18.898  47.978  0.00  0.00     0.022 C 
ATOM     17  O2  LG1 d5015      44.291  16.890  50.916  0.00  0.00    -0.293 OA
ATOM     18  C19 LG1 d5015      42.835  15.909  46.457  0.00  0.00     0.035 C 
ATOM     19  C20 LG1 d5015      42.094  16.776  45.421  0.00  0.00     0.010 C 
ATOM     20  C21 LG1 d5015      45.786  17.252  46.178  0.00  0.00     0.020 C 
ENDROOT
BRANCH   4  21
ATOM     21  C7  LG1 d5015      42.393  21.331  41.032  0.00  0.00     0.128 C 
ATOM     22  O1  LG1 d5015      42.856  22.421  41.292  0.00  0.00    -0.298 OA
ATOM     23  C8  LG1 d5015      42.306  20.871  39.618  0.00  0.00     0.091 C 
ENDBRANCH   4  21
TORSDOF 1
ENDMDL
