REMARK INTER + INTRA:          -9.326
REMARK INTER:                  -9.121
REMARK INTRA:                  -0.205
REMARK UNBOUND:                -0.204
REMARK  1 active torsions:
REMARK  status: ('A' for Active; 'I' for Inactive)
REMARK    1  A    between atoms: C7_7  and  C4_4 
ROOT
ATOM      1  C1  LG1 d5015      42.679  17.997  44.704  0.00  0.00    -0.004 C 
ATOM      2  C2  LG1 d5015      43.311  16.799  45.419  0.00  0.00    -0.001 C 
ATOM      3  C3  LG1 d5015      44.250  17.220  46.611  0.00  0.00    -0.030 C 
ATOM      4  C4  LG1 d5015      44.624  15.791  47.129  0.00  0.00     0.063 C 
ATOM      5  C5  LG1 d5015      43.300  14.957  47.013  0.00  0.00     0.013 C 
ATOM      6  C6  LG1 d5015      42.355  15.750  46.039  0.00  0.00     0.006 C 
ATOM      7  C9  LG1 d5015      43.504  18.014  47.741  0.00  0.00     0.016 C 
ATOM      8  C10 LG1 d5015      45.402  18.030  45.976  0.00  0.00     0.011 C 
ATOM      9  C11 LG1 d5015      44.861  19.266  45.204  0.00  0.00     0.007 C 
ATOM     10  C12 LG1 d5015      43.834  18.870  44.111  0.00  0.00     0.002 C 
ATOM     11  C13 LG1 d5015      43.309  20.131  43.330  0.00  0.00    -0.016 C 
ATOM     12  C14 LG1 d5015      42.256  19.653  42.249  0.00  0.00    -0.068 C 
ATOM     13  C15 LG1 d5015      42.263  20.053  40.991  0.00  0.00     0.053 C 
ATOM     14  C16 LG1 d5015      43.182  21.080  40.522  0.00  0.00     0.149 C 
ATOM     15  C17 LG1 d5015      44.101  21.792  41.509  0.00  0.00     0.084 C 
ATOM     16  C18 LG1 d5015      44.518  20.807  42.630  0.00  0.00     0.022 C 
ATOM     17  O2  LG1 d5015      43.174  21.436  39.330  0.00  0.00    -0.293 OA
ATOM     18  C19 LG1 d5015      41.198  18.647  42.689  0.00  0.00     0.035 C 
ATOM     19  C20 LG1 d5015      41.793  17.502  43.532  0.00  0.00     0.010 C 
ATOM     20  C21 LG1 d5015      42.552  21.151  44.265  0.00  0.00     0.020 C 
ENDROOT
BRANCH   4  21
ATOM     21  C7  LG1 d5015      45.295  15.761  48.513  0.00  0.00     0.128 C 
ATOM     22  O1  LG1 d5015      46.404  16.227  48.663  0.00  0.00    -0.298 OA
ATOM     23  C8  LG1 d5015      44.569  15.161  49.667  0.00  0.00     0.091 C 
ENDBRANCH   4  21
TORSDOF 1
ENDMDL
