REMARK INTER + INTRA:          -8.531
REMARK INTER:                  -8.329
REMARK INTRA:                  -0.202
REMARK UNBOUND:                -0.204
REMARK  1 active torsions:
REMARK  status: ('A' for Active; 'I' for Inactive)
REMARK    1  A    between atoms: C7_7  and  C4_4 
ROOT
ATOM      1  C1  LG1 d5015      43.621  16.442  46.709  0.00  0.00    -0.004 C 
ATOM      2  C2  LG1 d5015      42.886  17.400  45.766  0.00  0.00    -0.001 C 
ATOM      3  C3  LG1 d5015      43.431  18.875  45.840  0.00  0.00    -0.030 C 
ATOM      4  C4  LG1 d5015      42.537  19.511  44.725  0.00  0.00     0.063 C 
ATOM      5  C5  LG1 d5015      42.456  18.422  43.598  0.00  0.00     0.013 C 
ATOM      6  C6  LG1 d5015      42.897  17.064  44.255  0.00  0.00     0.006 C 
ATOM      7  C9  LG1 d5015      44.944  19.000  45.439  0.00  0.00     0.016 C 
ATOM      8  C10 LG1 d5015      43.156  19.356  47.282  0.00  0.00     0.011 C 
ATOM      9  C11 LG1 d5015      43.847  18.433  48.323  0.00  0.00     0.007 C 
ATOM     10  C12 LG1 d5015      43.413  16.952  48.174  0.00  0.00     0.002 C 
ATOM     11  C13 LG1 d5015      44.110  16.035  49.246  0.00  0.00    -0.016 C 
ATOM     12  C14 LG1 d5015      43.633  14.542  49.019  0.00  0.00    -0.068 C 
ATOM     13  C15 LG1 d5015      43.223  13.748  49.991  0.00  0.00     0.053 C 
ATOM     14  C16 LG1 d5015      43.295  14.150  51.387  0.00  0.00     0.149 C 
ATOM     15  C17 LG1 d5015      43.944  15.478  51.768  0.00  0.00     0.084 C 
ATOM     16  C18 LG1 d5015      43.678  16.521  50.655  0.00  0.00     0.022 C 
ATOM     17  O2  LG1 d5015      42.896  13.387  52.285  0.00  0.00    -0.293 OA
ATOM     18  C19 LG1 d5015      43.620  14.013  47.589  0.00  0.00     0.035 C 
ATOM     19  C20 LG1 d5015      43.010  15.022  46.597  0.00  0.00     0.010 C 
ATOM     20  C21 LG1 d5015      45.680  16.025  49.105  0.00  0.00     0.020 C 
ENDROOT
BRANCH   4  21
ATOM     21  C7  LG1 d5015      42.983  20.905  44.254  0.00  0.00     0.128 C 
ATOM     22  O1  LG1 d5015      42.967  21.843  45.022  0.00  0.00    -0.298 OA
ATOM     23  C8  LG1 d5015      43.443  21.093  42.850  0.00  0.00     0.091 C 
ENDBRANCH   4  21
TORSDOF 1
ENDMDL
