REMARK INTER + INTRA:          -9.284
REMARK INTER:                  -9.081
REMARK INTRA:                  -0.203
REMARK UNBOUND:                -0.198
REMARK  1 active torsions:
REMARK  status: ('A' for Active; 'I' for Inactive)
REMARK    1  A    between atoms: C7_7  and  C4_4 
ROOT
ATOM      1  C1  LG1 d5015      42.657  17.996  44.713  0.00  0.00    -0.004 C 
ATOM      2  C2  LG1 d5015      43.284  16.804  45.444  0.00  0.00    -0.001 C 
ATOM      3  C3  LG1 d5015      44.187  17.234  46.659  0.00  0.00    -0.030 C 
ATOM      4  C4  LG1 d5015      44.564  15.810  47.186  0.00  0.00     0.063 C 
ATOM      5  C5  LG1 d5015      43.254  14.961  47.035  0.00  0.00     0.013 C 
ATOM      6  C6  LG1 d5015      42.325  15.744  46.038  0.00  0.00     0.006 C 
ATOM      7  C9  LG1 d5015      43.404  18.018  47.770  0.00  0.00     0.016 C 
ATOM      8  C10 LG1 d5015      45.346  18.058  46.054  0.00  0.00     0.011 C 
ATOM      9  C11 LG1 d5015      44.810  19.288  45.269  0.00  0.00     0.007 C 
ATOM     10  C12 LG1 d5015      43.816  18.882  44.150  0.00  0.00     0.002 C 
ATOM     11  C13 LG1 d5015      43.297  20.138  43.357  0.00  0.00    -0.016 C 
ATOM     12  C14 LG1 d5015      42.278  19.648  42.249  0.00  0.00    -0.068 C 
ATOM     13  C15 LG1 d5015      42.313  20.050  40.991  0.00  0.00     0.053 C 
ATOM     14  C16 LG1 d5015      43.231  21.087  40.547  0.00  0.00     0.149 C 
ATOM     15  C17 LG1 d5015      44.117  21.809  41.558  0.00  0.00     0.084 C 
ATOM     16  C18 LG1 d5015      44.516  20.828  42.688  0.00  0.00     0.022 C 
ATOM     17  O2  LG1 d5015      43.250  21.444  39.356  0.00  0.00    -0.293 OA
ATOM     18  C19 LG1 d5015      41.221  18.630  42.661  0.00  0.00     0.035 C 
ATOM     19  C20 LG1 d5015      41.807  17.491  43.519  0.00  0.00     0.010 C 
ATOM     20  C21 LG1 d5015      42.505  21.148  44.273  0.00  0.00     0.020 C 
ENDROOT
BRANCH   4  21
ATOM     21  C7  LG1 d5015      45.200  15.785  48.586  0.00  0.00     0.128 C 
ATOM     22  O1  LG1 d5015      46.292  16.280  48.769  0.00  0.00    -0.298 OA
ATOM     23  C8  LG1 d5015      44.460  15.157  49.716  0.00  0.00     0.091 C 
ENDBRANCH   4  21
TORSDOF 1
ENDMDL
