REMARK INTER + INTRA:          -8.686
REMARK INTER:                  -8.650
REMARK INTRA:                  -0.037
REMARK UNBOUND:                -0.198
REMARK  1 active torsions:
REMARK  status: ('A' for Active; 'I' for Inactive)
REMARK    1  A    between atoms: C7_7  and  C4_4 
ROOT
ATOM      1  C1  LG1 d5015      42.612  19.393  45.414  0.00  0.00    -0.004 C 
ATOM      2  C2  LG1 d5015      43.308  20.225  44.332  0.00  0.00    -0.001 C 
ATOM      3  C3  LG1 d5015      43.715  19.376  43.071  0.00  0.00    -0.030 C 
ATOM      4  C4  LG1 d5015      44.293  20.532  42.188  0.00  0.00     0.063 C 
ATOM      5  C5  LG1 d5015      43.333  21.749  42.433  0.00  0.00     0.013 C 
ATOM      6  C6  LG1 d5015      42.532  21.431  43.747  0.00  0.00     0.006 C 
ATOM      7  C9  LG1 d5015      42.491  18.717  42.343  0.00  0.00     0.016 C 
ATOM      8  C10 LG1 d5015      44.740  18.335  43.573  0.00  0.00     0.011 C 
ATOM      9  C11 LG1 d5015      44.133  17.447  44.695  0.00  0.00     0.007 C 
ATOM     10  C12 LG1 d5015      43.610  18.286  45.889  0.00  0.00     0.002 C 
ATOM     11  C13 LG1 d5015      43.014  17.370  47.021  0.00  0.00    -0.016 C 
ATOM     12  C14 LG1 d5015      42.486  18.294  48.193  0.00  0.00    -0.068 C 
ATOM     13  C15 LG1 d5015      42.748  18.081  49.470  0.00  0.00     0.053 C 
ATOM     14  C16 LG1 d5015      43.452  16.888  49.916  0.00  0.00     0.149 C 
ATOM     15  C17 LG1 d5015      43.822  15.799  48.914  0.00  0.00     0.084 C 
ATOM     16  C18 LG1 d5015      44.146  16.446  47.544  0.00  0.00     0.022 C 
ATOM     17  O2  LG1 d5015      43.693  16.713  51.123  0.00  0.00    -0.293 OA
ATOM     18  C19 LG1 d5015      41.657  19.515  47.811  0.00  0.00     0.035 C 
ATOM     19  C20 LG1 d5015      42.268  20.292  46.629  0.00  0.00     0.010 C 
ATOM     20  C21 LG1 d5015      41.775  16.527  46.529  0.00  0.00     0.020 C 
ENDROOT
BRANCH   4  21
ATOM     21  C7  LG1 d5015      44.519  20.167  40.711  0.00  0.00     0.128 C 
ATOM     22  O1  LG1 d5015      45.053  19.119  40.416  0.00  0.00    -0.298 OA
ATOM     23  C8  LG1 d5015      44.069  21.107  39.646  0.00  0.00     0.091 C 
ENDBRANCH   4  21
TORSDOF 1
ENDMDL
