REMARK INTER + INTRA:          -8.280
REMARK INTER:                  -8.077
REMARK INTRA:                  -0.204
REMARK UNBOUND:                -0.204
REMARK  1 active torsions:
REMARK  status: ('A' for Active; 'I' for Inactive)
REMARK    1  A    between atoms: C7_7  and  C4_4 
ROOT
ATOM      1  C1  LG1 d5015      43.666  17.246  46.330  0.00  0.00    -0.004 C 
ATOM      2  C2  LG1 d5015      44.745  16.378  46.987  0.00  0.00    -0.001 C 
ATOM      3  C3  LG1 d5015      45.605  17.164  48.046  0.00  0.00    -0.030 C 
ATOM      4  C4  LG1 d5015      46.501  15.981  48.543  0.00  0.00     0.063 C 
ATOM      5  C5  LG1 d5015      45.540  14.742  48.606  0.00  0.00     0.013 C 
ATOM      6  C6  LG1 d5015      44.281  15.108  47.739  0.00  0.00     0.006 C 
ATOM      7  C9  LG1 d5015      44.760  17.725  49.243  0.00  0.00     0.016 C 
ATOM      8  C10 LG1 d5015      46.333  18.276  47.258  0.00  0.00     0.011 C 
ATOM      9  C11 LG1 d5015      45.321  19.206  46.534  0.00  0.00     0.007 C 
ATOM     10  C12 LG1 d5015      44.380  18.421  45.583  0.00  0.00     0.002 C 
ATOM     11  C13 LG1 d5015      43.373  19.380  44.847  0.00  0.00    -0.016 C 
ATOM     12  C14 LG1 d5015      42.438  18.509  43.913  0.00  0.00    -0.068 C 
ATOM     13  C15 LG1 d5015      42.171  18.811  42.656  0.00  0.00     0.053 C 
ATOM     14  C16 LG1 d5015      42.625  20.057  42.058  0.00  0.00     0.149 C 
ATOM     15  C17 LG1 d5015      43.345  21.097  42.911  0.00  0.00     0.084 C 
ATOM     16  C18 LG1 d5015      44.193  20.381  43.991  0.00  0.00     0.022 C 
ATOM     17  O2  LG1 d5015      42.366  20.317  40.869  0.00  0.00    -0.293 OA
ATOM     18  C19 LG1 d5015      41.844  17.232  44.499  0.00  0.00     0.035 C 
ATOM     19  C20 LG1 d5015      42.883  16.410  45.286  0.00  0.00     0.010 C 
ATOM     20  C21 LG1 d5015      42.417  20.138  45.847  0.00  0.00     0.020 C 
ENDROOT
BRANCH   4  21
ATOM     21  C7  LG1 d5015      47.287  16.263  49.834  0.00  0.00     0.128 C 
ATOM     22  O1  LG1 d5015      48.180  17.083  49.838  0.00  0.00    -0.298 OA
ATOM     23  C8  LG1 d5015      46.939  15.526  51.081  0.00  0.00     0.091 C 
ENDBRANCH   4  21
TORSDOF 1
ENDMDL
