REMARK INTER + INTRA:          -9.283
REMARK INTER:                  -9.079
REMARK INTRA:                  -0.204
REMARK UNBOUND:                -0.153
REMARK  1 active torsions:
REMARK  status: ('A' for Active; 'I' for Inactive)
REMARK    1  A    between atoms: C7_7  and  C4_4 
ROOT
ATOM      1  C1  LG1 d5015      42.648  17.996  44.712  0.00  0.00    -0.004 C 
ATOM      2  C2  LG1 d5015      43.263  16.807  45.459  0.00  0.00    -0.001 C 
ATOM      3  C3  LG1 d5015      44.169  17.245  46.669  0.00  0.00    -0.030 C 
ATOM      4  C4  LG1 d5015      44.533  15.824  47.215  0.00  0.00     0.063 C 
ATOM      5  C5  LG1 d5015      43.213  14.986  47.075  0.00  0.00     0.013 C 
ATOM      6  C6  LG1 d5015      42.293  15.765  46.066  0.00  0.00     0.006 C 
ATOM      7  C9  LG1 d5015      43.393  18.051  47.770  0.00  0.00     0.016 C 
ATOM      8  C10 LG1 d5015      45.336  18.050  46.055  0.00  0.00     0.011 C 
ATOM      9  C11 LG1 d5015      44.813  19.274  45.254  0.00  0.00     0.007 C 
ATOM     10  C12 LG1 d5015      43.816  18.864  44.139  0.00  0.00     0.002 C 
ATOM     11  C13 LG1 d5015      43.310  20.114  43.329  0.00  0.00    -0.016 C 
ATOM     12  C14 LG1 d5015      42.287  19.619  42.227  0.00  0.00    -0.068 C 
ATOM     13  C15 LG1 d5015      42.327  20.004  40.964  0.00  0.00     0.053 C 
ATOM     14  C16 LG1 d5015      43.255  21.027  40.507  0.00  0.00     0.149 C 
ATOM     15  C17 LG1 d5015      44.147  21.753  41.509  0.00  0.00     0.084 C 
ATOM     16  C18 LG1 d5015      44.536  20.783  42.652  0.00  0.00     0.022 C 
ATOM     17  O2  LG1 d5015      43.278  21.368  39.311  0.00  0.00    -0.293 OA
ATOM     18  C19 LG1 d5015      41.219  18.617  42.651  0.00  0.00     0.035 C 
ATOM     19  C20 LG1 d5015      41.794  17.484  43.524  0.00  0.00     0.010 C 
ATOM     20  C21 LG1 d5015      42.527  21.143  44.231  0.00  0.00     0.020 C 
ENDROOT
BRANCH   4  21
ATOM     21  C7  LG1 d5015      45.167  15.812  48.616  0.00  0.00     0.128 C 
ATOM     22  O1  LG1 d5015      46.272  16.279  48.789  0.00  0.00    -0.298 OA
ATOM     23  C8  LG1 d5015      44.409  15.229  49.759  0.00  0.00     0.091 C 
ENDBRANCH   4  21
TORSDOF 1
ENDMDL
