REMARK INTER + INTRA:          -8.738
REMARK INTER:                  -8.670
REMARK INTRA:                  -0.067
REMARK UNBOUND:                -0.153
REMARK  1 active torsions:
REMARK  status: ('A' for Active; 'I' for Inactive)
REMARK    1  A    between atoms: C7_7  and  C4_4 
ROOT
ATOM      1  C1  LG1 d5015      42.642  19.133  45.784  0.00  0.00    -0.004 C 
ATOM      2  C2  LG1 d5015      43.280  20.022  44.710  0.00  0.00    -0.001 C 
ATOM      3  C3  LG1 d5015      43.672  19.226  43.410  0.00  0.00    -0.030 C 
ATOM      4  C4  LG1 d5015      44.188  20.427  42.549  0.00  0.00     0.063 C 
ATOM      5  C5  LG1 d5015      43.200  21.605  42.862  0.00  0.00     0.013 C 
ATOM      6  C6  LG1 d5015      42.450  21.220  44.189  0.00  0.00     0.006 C 
ATOM      7  C9  LG1 d5015      42.447  18.553  42.697  0.00  0.00     0.016 C 
ATOM      8  C10 LG1 d5015      44.743  18.202  43.847  0.00  0.00     0.011 C 
ATOM      9  C11 LG1 d5015      44.198  17.260  44.956  0.00  0.00     0.007 C 
ATOM     10  C12 LG1 d5015      43.687  18.044  46.193  0.00  0.00     0.002 C 
ATOM     11  C13 LG1 d5015      43.154  17.074  47.312  0.00  0.00    -0.016 C 
ATOM     12  C14 LG1 d5015      42.636  17.943  48.528  0.00  0.00    -0.068 C 
ATOM     13  C15 LG1 d5015      42.943  17.698  49.789  0.00  0.00     0.053 C 
ATOM     14  C16 LG1 d5015      43.696  16.514  50.174  0.00  0.00     0.149 C 
ATOM     15  C17 LG1 d5015      44.067  15.469  49.126  0.00  0.00     0.084 C 
ATOM     16  C18 LG1 d5015      44.330  16.169  47.770  0.00  0.00     0.022 C 
ATOM     17  O2  LG1 d5015      43.979  16.308  51.368  0.00  0.00    -0.293 OA
ATOM     18  C19 LG1 d5015      41.759  19.150  48.212  0.00  0.00     0.035 C 
ATOM     19  C20 LG1 d5015      42.309  19.982  47.038  0.00  0.00     0.010 C 
ATOM     20  C21 LG1 d5015      41.927  16.209  46.829  0.00  0.00     0.020 C 
ENDROOT
BRANCH   4  21
ATOM     21  C7  LG1 d5015      44.379  20.117  41.055  0.00  0.00     0.128 C 
ATOM     22  O1  LG1 d5015      44.974  19.118  40.711  0.00  0.00    -0.298 OA
ATOM     23  C8  LG1 d5015      43.822  21.048  40.035  0.00  0.00     0.091 C 
ENDBRANCH   4  21
TORSDOF 1
ENDMDL
