MODEL 1
REMARK VINA RESULT:    -9.229      0.000      0.000
REMARK INTER + INTRA:          -9.922
REMARK INTER:                  -9.733
REMARK INTRA:                  -0.188
REMARK UNBOUND:                -0.153
REMARK  1 active torsions:
REMARK  status: ('A' for Active; 'I' for Inactive)
REMARK    1  A    between atoms: C7_7  and  C4_4 
ROOT
ATOM      1  C1  LG1 d5015      43.019  17.804  44.722  0.00  0.00    -0.004 C 
ATOM      2  C2  LG1 d5015      42.166  18.691  43.808  0.00  0.00    -0.001 C 
ATOM      3  C3  LG1 d5015      43.010  19.783  43.051  0.00  0.00    -0.030 C 
ATOM      4  C4  LG1 d5015      41.863  20.407  42.188  0.00  0.00     0.063 C 
ATOM      5  C5  LG1 d5015      40.984  19.188  41.738  0.00  0.00     0.013 C 
ATOM      6  C6  LG1 d5015      41.353  17.993  42.690  0.00  0.00     0.006 C 
ATOM      7  C9  LG1 d5015      44.110  19.177  42.109  0.00  0.00     0.016 C 
ATOM      8  C10 LG1 d5015      43.602  20.696  44.147  0.00  0.00     0.011 C 
ATOM      9  C11 LG1 d5015      44.474  19.883  45.144  0.00  0.00     0.007 C 
ATOM     10  C12 LG1 d5015      43.684  18.721  45.801  0.00  0.00     0.002 C 
ATOM     11  C13 LG1 d5015      44.577  17.919  46.819  0.00  0.00    -0.016 C 
ATOM     12  C14 LG1 d5015      43.712  16.743  47.431  0.00  0.00    -0.068 C 
ATOM     13  C15 LG1 d5015      43.657  16.469  48.722  0.00  0.00     0.053 C 
ATOM     14  C16 LG1 d5015      44.499  17.161  49.686  0.00  0.00     0.149 C 
ATOM     15  C17 LG1 d5015      45.546  18.163  49.207  0.00  0.00     0.084 C 
ATOM     16  C18 LG1 d5015      45.023  18.891  47.944  0.00  0.00     0.022 C 
ATOM     17  O2  LG1 d5015      44.424  16.889  50.897  0.00  0.00    -0.293 OA
ATOM     18  C19 LG1 d5015      42.873  15.908  46.470  0.00  0.00     0.035 C 
ATOM     19  C20 LG1 d5015      42.114  16.776  45.448  0.00  0.00     0.010 C 
ATOM     20  C21 LG1 d5015      45.822  17.240  46.128  0.00  0.00     0.020 C 
ENDROOT
BRANCH   4  21
ATOM     21  C7  LG1 d5015      42.338  21.325  41.048  0.00  0.00     0.128 C 
ATOM     22  O1  LG1 d5015      42.786  22.423  41.297  0.00  0.00    -0.298 OA
ATOM     23  C8  LG1 d5015      42.248  20.850  39.639  0.00  0.00     0.091 C 
ENDBRANCH   4  21
TORSDOF 1
ENDMDL
MODEL 2
REMARK VINA RESULT:    -8.626      1.436      6.893
REMARK INTER + INTRA:          -9.283
REMARK INTER:                  -9.079
REMARK INTRA:                  -0.204
REMARK UNBOUND:                -0.153
REMARK  1 active torsions:
REMARK  status: ('A' for Active; 'I' for Inactive)
REMARK    1  A    between atoms: C7_7  and  C4_4 
ROOT
ATOM      1  C1  LG1 d5015      42.648  17.996  44.712  0.00  0.00    -0.004 C 
ATOM      2  C2  LG1 d5015      43.263  16.807  45.459  0.00  0.00    -0.001 C 
ATOM      3  C3  LG1 d5015      44.169  17.245  46.669  0.00  0.00    -0.030 C 
ATOM      4  C4  LG1 d5015      44.533  15.824  47.215  0.00  0.00     0.063 C 
ATOM      5  C5  LG1 d5015      43.213  14.986  47.075  0.00  0.00     0.013 C 
ATOM      6  C6  LG1 d5015      42.293  15.765  46.066  0.00  0.00     0.006 C 
ATOM      7  C9  LG1 d5015      43.393  18.051  47.770  0.00  0.00     0.016 C 
ATOM      8  C10 LG1 d5015      45.336  18.050  46.055  0.00  0.00     0.011 C 
ATOM      9  C11 LG1 d5015      44.813  19.274  45.254  0.00  0.00     0.007 C 
ATOM     10  C12 LG1 d5015      43.816  18.864  44.139  0.00  0.00     0.002 C 
ATOM     11  C13 LG1 d5015      43.310  20.114  43.329  0.00  0.00    -0.016 C 
ATOM     12  C14 LG1 d5015      42.287  19.619  42.227  0.00  0.00    -0.068 C 
ATOM     13  C15 LG1 d5015      42.327  20.004  40.964  0.00  0.00     0.053 C 
ATOM     14  C16 LG1 d5015      43.255  21.027  40.507  0.00  0.00     0.149 C 
ATOM     15  C17 LG1 d5015      44.147  21.753  41.509  0.00  0.00     0.084 C 
ATOM     16  C18 LG1 d5015      44.536  20.783  42.652  0.00  0.00     0.022 C 
ATOM     17  O2  LG1 d5015      43.278  21.368  39.311  0.00  0.00    -0.293 OA
ATOM     18  C19 LG1 d5015      41.219  18.617  42.651  0.00  0.00     0.035 C 
ATOM     19  C20 LG1 d5015      41.794  17.484  43.524  0.00  0.00     0.010 C 
ATOM     20  C21 LG1 d5015      42.527  21.143  44.231  0.00  0.00     0.020 C 
ENDROOT
BRANCH   4  21
ATOM     21  C7  LG1 d5015      45.167  15.812  48.616  0.00  0.00     0.128 C 
ATOM     22  O1  LG1 d5015      46.272  16.279  48.789  0.00  0.00    -0.298 OA
ATOM     23  C8  LG1 d5015      44.409  15.229  49.759  0.00  0.00     0.091 C 
ENDBRANCH   4  21
TORSDOF 1
ENDMDL
MODEL 3
REMARK VINA RESULT:    -8.111      1.675      2.604
REMARK INTER + INTRA:          -8.738
REMARK INTER:                  -8.670
REMARK INTRA:                  -0.067
REMARK UNBOUND:                -0.153
REMARK  1 active torsions:
REMARK  status: ('A' for Active; 'I' for Inactive)
REMARK    1  A    between atoms: C7_7  and  C4_4 
ROOT
ATOM      1  C1  LG1 d5015      42.642  19.133  45.784  0.00  0.00    -0.004 C 
ATOM      2  C2  LG1 d5015      43.280  20.022  44.710  0.00  0.00    -0.001 C 
ATOM      3  C3  LG1 d5015      43.672  19.226  43.410  0.00  0.00    -0.030 C 
ATOM      4  C4  LG1 d5015      44.188  20.427  42.549  0.00  0.00     0.063 C 
ATOM      5  C5  LG1 d5015      43.200  21.605  42.862  0.00  0.00     0.013 C 
ATOM      6  C6  LG1 d5015      42.450  21.220  44.189  0.00  0.00     0.006 C 
ATOM      7  C9  LG1 d5015      42.447  18.553  42.697  0.00  0.00     0.016 C 
ATOM      8  C10 LG1 d5015      44.743  18.202  43.847  0.00  0.00     0.011 C 
ATOM      9  C11 LG1 d5015      44.198  17.260  44.956  0.00  0.00     0.007 C 
ATOM     10  C12 LG1 d5015      43.687  18.044  46.193  0.00  0.00     0.002 C 
ATOM     11  C13 LG1 d5015      43.154  17.074  47.312  0.00  0.00    -0.016 C 
ATOM     12  C14 LG1 d5015      42.636  17.943  48.528  0.00  0.00    -0.068 C 
ATOM     13  C15 LG1 d5015      42.943  17.698  49.789  0.00  0.00     0.053 C 
ATOM     14  C16 LG1 d5015      43.696  16.514  50.174  0.00  0.00     0.149 C 
ATOM     15  C17 LG1 d5015      44.067  15.469  49.126  0.00  0.00     0.084 C 
ATOM     16  C18 LG1 d5015      44.330  16.169  47.770  0.00  0.00     0.022 C 
ATOM     17  O2  LG1 d5015      43.979  16.308  51.368  0.00  0.00    -0.293 OA
ATOM     18  C19 LG1 d5015      41.759  19.150  48.212  0.00  0.00     0.035 C 
ATOM     19  C20 LG1 d5015      42.309  19.982  47.038  0.00  0.00     0.010 C 
ATOM     20  C21 LG1 d5015      41.927  16.209  46.829  0.00  0.00     0.020 C 
ENDROOT
BRANCH   4  21
ATOM     21  C7  LG1 d5015      44.379  20.117  41.055  0.00  0.00     0.128 C 
ATOM     22  O1  LG1 d5015      44.974  19.118  40.711  0.00  0.00    -0.298 OA
ATOM     23  C8  LG1 d5015      43.822  21.048  40.035  0.00  0.00     0.091 C 
ENDBRANCH   4  21
TORSDOF 1
ENDMDL
MODEL 4
REMARK VINA RESULT:    -7.706      2.117      3.637
REMARK INTER + INTRA:          -8.310
REMARK INTER:                  -8.157
REMARK INTRA:                  -0.153
REMARK UNBOUND:                -0.153
REMARK  1 active torsions:
REMARK  status: ('A' for Active; 'I' for Inactive)
REMARK    1  A    between atoms: C7_7  and  C4_4 
ROOT
ATOM      1  C1  LG1 d5015      43.216  17.460  47.877  0.00  0.00    -0.004 C 
ATOM      2  C2  LG1 d5015      43.328  18.802  47.145  0.00  0.00    -0.001 C 
ATOM      3  C3  LG1 d5015      43.782  18.648  45.646  0.00  0.00    -0.030 C 
ATOM      4  C4  LG1 d5015      43.701  20.152  45.222  0.00  0.00     0.063 C 
ATOM      5  C5  LG1 d5015      42.416  20.706  45.931  0.00  0.00     0.013 C 
ATOM      6  C6  LG1 d5015      42.059  19.684  47.071  0.00  0.00     0.006 C 
ATOM      7  C9  LG1 d5015      42.787  17.800  44.778  0.00  0.00     0.016 C 
ATOM      8  C10 LG1 d5015      45.200  18.036  45.693  0.00  0.00     0.011 C 
ATOM      9  C11 LG1 d5015      45.198  16.671  46.438  0.00  0.00     0.007 C 
ATOM     10  C12 LG1 d5015      44.630  16.789  47.876  0.00  0.00     0.002 C 
ATOM     11  C13 LG1 d5015      44.650  15.403  48.620  0.00  0.00    -0.016 C 
ATOM     12  C14 LG1 d5015      44.041  15.599  50.068  0.00  0.00    -0.068 C 
ATOM     13  C15 LG1 d5015      44.599  15.126  51.168  0.00  0.00     0.053 C 
ATOM     14  C16 LG1 d5015      45.773  14.268  51.120  0.00  0.00     0.149 C 
ATOM     15  C17 LG1 d5015      46.333  13.812  49.776  0.00  0.00     0.084 C 
ATOM     16  C18 LG1 d5015      46.125  14.929  48.724  0.00  0.00     0.022 C 
ATOM     17  O2  LG1 d5015      46.284  13.841  52.171  0.00  0.00    -0.293 OA
ATOM     18  C19 LG1 d5015      42.755  16.408  50.191  0.00  0.00     0.035 C 
ATOM     19  C20 LG1 d5015      42.792  17.698  49.349  0.00  0.00     0.010 C 
ATOM     20  C21 LG1 d5015      43.755  14.319  47.905  0.00  0.00     0.020 C 
ENDROOT
BRANCH   4  21
ATOM     21  C7  LG1 d5015      43.767  20.401  43.706  0.00  0.00     0.128 C 
ATOM     22  O1  LG1 d5015      44.703  19.980  43.059  0.00  0.00    -0.298 OA
ATOM     23  C8  LG1 d5015      42.671  21.156  43.038  0.00  0.00     0.091 C 
ENDBRANCH   4  21
TORSDOF 1
ENDMDL
