REMARK INTER + INTRA:          -9.893
REMARK INTER:                  -9.703
REMARK INTRA:                  -0.190
REMARK UNBOUND:                -0.204
REMARK  1 active torsions:
REMARK  status: ('A' for Active; 'I' for Inactive)
REMARK    1  A    between atoms: C7_7  and  C4_4 
ROOT
ATOM      1  C1  LG1 d5015      43.024  17.804  44.683  0.00  0.00    -0.004 C 
ATOM      2  C2  LG1 d5015      42.171  18.690  43.769  0.00  0.00    -0.001 C 
ATOM      3  C3  LG1 d5015      43.015  19.779  43.007  0.00  0.00    -0.030 C 
ATOM      4  C4  LG1 d5015      41.868  20.403  42.145  0.00  0.00     0.063 C 
ATOM      5  C5  LG1 d5015      40.985  19.185  41.701  0.00  0.00     0.013 C 
ATOM      6  C6  LG1 d5015      41.354  17.992  42.655  0.00  0.00     0.006 C 
ATOM      7  C9  LG1 d5015      44.112  19.169  42.064  0.00  0.00     0.016 C 
ATOM      8  C10 LG1 d5015      43.612  20.693  44.100  0.00  0.00     0.011 C 
ATOM      9  C11 LG1 d5015      44.485  19.881  45.097  0.00  0.00     0.007 C 
ATOM     10  C12 LG1 d5015      43.694  18.722  45.758  0.00  0.00     0.002 C 
ATOM     11  C13 LG1 d5015      44.588  17.921  46.776  0.00  0.00    -0.016 C 
ATOM     12  C14 LG1 d5015      43.723  16.749  47.393  0.00  0.00    -0.068 C 
ATOM     13  C15 LG1 d5015      43.670  16.478  48.685  0.00  0.00     0.053 C 
ATOM     14  C16 LG1 d5015      44.516  17.171  49.645  0.00  0.00     0.149 C 
ATOM     15  C17 LG1 d5015      45.563  18.169  49.161  0.00  0.00     0.084 C 
ATOM     16  C18 LG1 d5015      45.039  18.895  47.897  0.00  0.00     0.022 C 
ATOM     17  O2  LG1 d5015      44.444  16.902  50.857  0.00  0.00    -0.293 OA
ATOM     18  C19 LG1 d5015      42.880  15.913  46.437  0.00  0.00     0.035 C 
ATOM     19  C20 LG1 d5015      42.119  16.780  45.415  0.00  0.00     0.010 C 
ATOM     20  C21 LG1 d5015      45.830  17.238  46.084  0.00  0.00     0.020 C 
ENDROOT
BRANCH   4  21
ATOM     21  C7  LG1 d5015      42.341  21.317  41.002  0.00  0.00     0.128 C 
ATOM     22  O1  LG1 d5015      42.798  22.413  41.247  0.00  0.00    -0.298 OA
ATOM     23  C8  LG1 d5015      42.241  20.842  39.594  0.00  0.00     0.091 C 
ENDBRANCH   4  21
TORSDOF 1
ENDMDL
