MODEL 1
REMARK VINA RESULT:    -9.175      0.000      0.000
REMARK INTER + INTRA:          -9.915
REMARK INTER:                  -9.728
REMARK INTRA:                  -0.187
REMARK UNBOUND:                -0.204
REMARK  1 active torsions:
REMARK  status: ('A' for Active; 'I' for Inactive)
REMARK    1  A    between atoms: C7_7  and  C4_4 
ROOT
ATOM      1  C1  LG1 d5015      43.023  17.825  44.728  0.00  0.00    -0.004 C 
ATOM      2  C2  LG1 d5015      42.169  18.707  43.811  0.00  0.00    -0.001 C 
ATOM      3  C3  LG1 d5015      43.011  19.798  43.051  0.00  0.00    -0.030 C 
ATOM      4  C4  LG1 d5015      41.863  20.417  42.185  0.00  0.00     0.063 C 
ATOM      5  C5  LG1 d5015      40.987  19.195  41.739  0.00  0.00     0.013 C 
ATOM      6  C6  LG1 d5015      41.358  18.004  42.695  0.00  0.00     0.006 C 
ATOM      7  C9  LG1 d5015      44.113  19.192  42.111  0.00  0.00     0.016 C 
ATOM      8  C10 LG1 d5015      43.601  20.716  44.144  0.00  0.00     0.011 C 
ATOM      9  C11 LG1 d5015      44.474  19.908  45.144  0.00  0.00     0.007 C 
ATOM     10  C12 LG1 d5015      43.687  18.746  45.804  0.00  0.00     0.002 C 
ATOM     11  C13 LG1 d5015      44.581  17.950  46.825  0.00  0.00    -0.016 C 
ATOM     12  C14 LG1 d5015      43.719  16.774  47.441  0.00  0.00    -0.068 C 
ATOM     13  C15 LG1 d5015      43.664  16.504  48.732  0.00  0.00     0.053 C 
ATOM     14  C16 LG1 d5015      44.504  17.201  49.694  0.00  0.00     0.149 C 
ATOM     15  C17 LG1 d5015      45.548  18.203  49.212  0.00  0.00     0.084 C 
ATOM     16  C18 LG1 d5015      45.024  18.926  47.947  0.00  0.00     0.022 C 
ATOM     17  O2  LG1 d5015      44.429  16.933  50.907  0.00  0.00    -0.293 OA
ATOM     18  C19 LG1 d5015      42.882  15.934  46.482  0.00  0.00     0.035 C 
ATOM     19  C20 LG1 d5015      42.121  16.797  45.458  0.00  0.00     0.010 C 
ATOM     20  C21 LG1 d5015      45.828  17.272  46.137  0.00  0.00     0.020 C 
ENDROOT
BRANCH   4  21
ATOM     21  C7  LG1 d5015      42.336  21.332  41.043  0.00  0.00     0.128 C 
ATOM     22  O1  LG1 d5015      42.777  22.435  41.288  0.00  0.00    -0.298 OA
ATOM     23  C8  LG1 d5015      42.255  20.850  39.636  0.00  0.00     0.091 C 
ENDBRANCH   4  21
TORSDOF 1
ENDMDL
MODEL 2
REMARK VINA RESULT:    -8.618      1.471      6.894
REMARK INTER + INTRA:          -9.326
REMARK INTER:                  -9.121
REMARK INTRA:                  -0.205
REMARK UNBOUND:                -0.204
REMARK  1 active torsions:
REMARK  status: ('A' for Active; 'I' for Inactive)
REMARK    1  A    between atoms: C7_7  and  C4_4 
ROOT
ATOM      1  C1  LG1 d5015      42.679  17.997  44.704  0.00  0.00    -0.004 C 
ATOM      2  C2  LG1 d5015      43.311  16.799  45.419  0.00  0.00    -0.001 C 
ATOM      3  C3  LG1 d5015      44.250  17.220  46.611  0.00  0.00    -0.030 C 
ATOM      4  C4  LG1 d5015      44.624  15.791  47.129  0.00  0.00     0.063 C 
ATOM      5  C5  LG1 d5015      43.300  14.957  47.013  0.00  0.00     0.013 C 
ATOM      6  C6  LG1 d5015      42.355  15.750  46.039  0.00  0.00     0.006 C 
ATOM      7  C9  LG1 d5015      43.504  18.014  47.741  0.00  0.00     0.016 C 
ATOM      8  C10 LG1 d5015      45.402  18.030  45.976  0.00  0.00     0.011 C 
ATOM      9  C11 LG1 d5015      44.861  19.266  45.204  0.00  0.00     0.007 C 
ATOM     10  C12 LG1 d5015      43.834  18.870  44.111  0.00  0.00     0.002 C 
ATOM     11  C13 LG1 d5015      43.309  20.131  43.330  0.00  0.00    -0.016 C 
ATOM     12  C14 LG1 d5015      42.256  19.653  42.249  0.00  0.00    -0.068 C 
ATOM     13  C15 LG1 d5015      42.263  20.053  40.991  0.00  0.00     0.053 C 
ATOM     14  C16 LG1 d5015      43.182  21.080  40.522  0.00  0.00     0.149 C 
ATOM     15  C17 LG1 d5015      44.101  21.792  41.509  0.00  0.00     0.084 C 
ATOM     16  C18 LG1 d5015      44.518  20.807  42.630  0.00  0.00     0.022 C 
ATOM     17  O2  LG1 d5015      43.174  21.436  39.330  0.00  0.00    -0.293 OA
ATOM     18  C19 LG1 d5015      41.198  18.647  42.689  0.00  0.00     0.035 C 
ATOM     19  C20 LG1 d5015      41.793  17.502  43.532  0.00  0.00     0.010 C 
ATOM     20  C21 LG1 d5015      42.552  21.151  44.265  0.00  0.00     0.020 C 
ENDROOT
BRANCH   4  21
ATOM     21  C7  LG1 d5015      45.295  15.761  48.513  0.00  0.00     0.128 C 
ATOM     22  O1  LG1 d5015      46.404  16.227  48.663  0.00  0.00    -0.298 OA
ATOM     23  C8  LG1 d5015      44.569  15.161  49.667  0.00  0.00     0.091 C 
ENDBRANCH   4  21
TORSDOF 1
ENDMDL
MODEL 3
REMARK VINA RESULT:    -7.957      1.879      2.934
REMARK INTER + INTRA:          -8.626
REMARK INTER:                  -8.421
REMARK INTRA:                  -0.205
REMARK UNBOUND:                -0.204
REMARK  1 active torsions:
REMARK  status: ('A' for Active; 'I' for Inactive)
REMARK    1  A    between atoms: C7_7  and  C4_4 
ROOT
ATOM      1  C1  LG1 d5015      43.648  16.432  46.494  0.00  0.00    -0.004 C 
ATOM      2  C2  LG1 d5015      42.853  17.438  45.654  0.00  0.00    -0.001 C 
ATOM      3  C3  LG1 d5015      43.518  18.864  45.611  0.00  0.00    -0.030 C 
ATOM      4  C4  LG1 d5015      42.513  19.560  44.634  0.00  0.00     0.063 C 
ATOM      5  C5  LG1 d5015      42.173  18.471  43.556  0.00  0.00     0.013 C 
ATOM      6  C6  LG1 d5015      42.602  17.088  44.167  0.00  0.00     0.006 C 
ATOM      7  C9  LG1 d5015      44.954  18.863  44.979  0.00  0.00     0.016 C 
ATOM      8  C10 LG1 d5015      43.509  19.379  47.067  0.00  0.00     0.011 C 
ATOM      9  C11 LG1 d5015      44.279  18.413  48.010  0.00  0.00     0.007 C 
ATOM     10  C12 LG1 d5015      43.711  16.970  47.961  0.00  0.00     0.002 C 
ATOM     11  C13 LG1 d5015      44.492  16.010  48.932  0.00  0.00    -0.016 C 
ATOM     12  C14 LG1 d5015      43.870  14.559  48.814  0.00  0.00    -0.068 C 
ATOM     13  C15 LG1 d5015      43.555  13.810  49.855  0.00  0.00     0.053 C 
ATOM     14  C16 LG1 d5015      43.875  14.218  51.214  0.00  0.00     0.149 C 
ATOM     15  C17 LG1 d5015      44.678  15.491  51.462  0.00  0.00     0.084 C 
ATOM     16  C18 LG1 d5015      44.324  16.542  50.381  0.00  0.00     0.022 C 
ATOM     17  O2  LG1 d5015      43.561  13.497  52.179  0.00  0.00    -0.293 OA
ATOM     18  C19 LG1 d5015      43.594  14.019  47.415  0.00  0.00     0.035 C 
ATOM     19  C20 LG1 d5015      42.918  15.065  46.508  0.00  0.00     0.010 C 
ATOM     20  C21 LG1 d5015      46.016  15.871  48.552  0.00  0.00     0.020 C 
ENDROOT
BRANCH   4  21
ATOM     21  C7  LG1 d5015      42.989  20.909  44.069  0.00  0.00     0.128 C 
ATOM     22  O1  LG1 d5015      43.135  21.861  44.806  0.00  0.00    -0.298 OA
ATOM     23  C8  LG1 d5015      43.278  21.035  42.613  0.00  0.00     0.091 C 
ENDBRANCH   4  21
TORSDOF 1
ENDMDL
MODEL 4
REMARK VINA RESULT:    -7.821      1.713      2.834
REMARK INTER + INTRA:          -8.482
REMARK INTER:                  -8.318
REMARK INTRA:                  -0.163
REMARK UNBOUND:                -0.204
REMARK  1 active torsions:
REMARK  status: ('A' for Active; 'I' for Inactive)
REMARK    1  A    between atoms: C7_7  and  C4_4 
ROOT
ATOM      1  C1  LG1 d5015      42.815  18.663  46.539  0.00  0.00    -0.004 C 
ATOM      2  C2  LG1 d5015      43.357  19.790  45.652  0.00  0.00    -0.001 C 
ATOM      3  C3  LG1 d5015      43.647  19.323  44.177  0.00  0.00    -0.030 C 
ATOM      4  C4  LG1 d5015      44.082  20.702  43.578  0.00  0.00     0.063 C 
ATOM      5  C5  LG1 d5015      43.115  21.752  44.230  0.00  0.00     0.013 C 
ATOM      6  C6  LG1 d5015      42.479  21.054  45.487  0.00  0.00     0.006 C 
ATOM      7  C9  LG1 d5015      42.372  18.800  43.427  0.00  0.00     0.016 C 
ATOM      8  C10 LG1 d5015      44.757  18.254  44.282  0.00  0.00     0.011 C 
ATOM      9  C11 LG1 d5015      44.311  17.069  45.184  0.00  0.00     0.007 C 
ATOM     10  C12 LG1 d5015      43.898  17.536  46.604  0.00  0.00     0.002 C 
ATOM     11  C13 LG1 d5015      43.465  16.322  47.507  0.00  0.00    -0.016 C 
ATOM     12  C14 LG1 d5015      43.042  16.877  48.927  0.00  0.00    -0.068 C 
ATOM     13  C15 LG1 d5015      43.453  16.358  50.070  0.00  0.00     0.053 C 
ATOM     14  C16 LG1 d5015      44.243  15.137  50.113  0.00  0.00     0.149 C 
ATOM     15  C17 LG1 d5015      44.535  14.369  48.827  0.00  0.00     0.084 C 
ATOM     16  C18 LG1 d5015      44.680  15.367  47.651  0.00  0.00     0.022 C 
ATOM     17  O2  LG1 d5015      44.625  14.671  51.201  0.00  0.00    -0.293 OA
ATOM     18  C19 LG1 d5015      42.134  18.101  48.967  0.00  0.00     0.035 C 
ATOM     19  C20 LG1 d5015      42.580  19.194  47.977  0.00  0.00     0.010 C 
ATOM     20  C21 LG1 d5015      42.209  15.560  46.936  0.00  0.00     0.020 C 
ENDROOT
BRANCH   4  21
ATOM     21  C7  LG1 d5015      44.153  20.747  42.042  0.00  0.00     0.128 C 
ATOM     22  O1  LG1 d5015      44.857  19.964  41.441  0.00  0.00    -0.298 OA
ATOM     23  C8  LG1 d5015      43.342  21.752  41.299  0.00  0.00     0.091 C 
ENDBRANCH   4  21
TORSDOF 1
ENDMDL
MODEL 5
REMARK VINA RESULT:    -7.639      1.940      7.136
REMARK INTER + INTRA:          -8.290
REMARK INTER:                  -8.086
REMARK INTRA:                  -0.204
REMARK UNBOUND:                -0.204
REMARK  1 active torsions:
REMARK  status: ('A' for Active; 'I' for Inactive)
REMARK    1  A    between atoms: C7_7  and  C4_4 
ROOT
ATOM      1  C1  LG1 d5015      43.923  17.105  46.667  0.00  0.00    -0.004 C 
ATOM      2  C2  LG1 d5015      45.096  16.326  47.271  0.00  0.00    -0.001 C 
ATOM      3  C3  LG1 d5015      45.955  17.187  48.271  0.00  0.00    -0.030 C 
ATOM      4  C4  LG1 d5015      46.960  16.079  48.729  0.00  0.00     0.063 C 
ATOM      5  C5  LG1 d5015      46.096  14.775  48.860  0.00  0.00     0.013 C 
ATOM      6  C6  LG1 d5015      44.768  15.037  48.062  0.00  0.00     0.006 C 
ATOM      7  C9  LG1 d5015      45.138  17.704  49.507  0.00  0.00     0.016 C 
ATOM      8  C10 LG1 d5015      46.555  18.337  47.432  0.00  0.00     0.011 C 
ATOM      9  C11 LG1 d5015      45.439  19.181  46.756  0.00  0.00     0.007 C 
ATOM     10  C12 LG1 d5015      44.507  18.317  45.868  0.00  0.00     0.002 C 
ATOM     11  C13 LG1 d5015      43.393  19.190  45.180  0.00  0.00    -0.016 C 
ATOM     12  C14 LG1 d5015      42.474  18.240  44.309  0.00  0.00    -0.068 C 
ATOM     13  C15 LG1 d5015      42.117  18.504  43.065  0.00  0.00     0.053 C 
ATOM     14  C16 LG1 d5015      42.445  19.771  42.430  0.00  0.00     0.149 C 
ATOM     15  C17 LG1 d5015      43.134  20.872  43.230  0.00  0.00     0.084 C 
ATOM     16  C18 LG1 d5015      44.090  20.235  44.268  0.00  0.00     0.022 C 
ATOM     17  O2  LG1 d5015      42.103  19.993  41.255  0.00  0.00    -0.293 OA
ATOM     18  C19 LG1 d5015      42.008  16.933  44.941  0.00  0.00     0.035 C 
ATOM     19  C20 LG1 d5015      43.146  16.200  45.677  0.00  0.00     0.010 C 
ATOM     20  C21 LG1 d5015      42.443  19.892  46.224  0.00  0.00     0.020 C 
ENDROOT
BRANCH   4  21
ATOM     21  C7  LG1 d5015      47.794  16.435  49.971  0.00  0.00     0.128 C 
ATOM     22  O1  LG1 d5015      48.619  17.322  49.918  0.00  0.00    -0.298 OA
ATOM     23  C8  LG1 d5015      47.574  15.689  51.242  0.00  0.00     0.091 C 
ENDBRANCH   4  21
TORSDOF 1
ENDMDL
