REMARK INTER + INTRA:          -8.738
REMARK INTER:                  -8.573
REMARK INTRA:                  -0.165
REMARK UNBOUND:                -0.204
REMARK  1 active torsions:
REMARK  status: ('A' for Active; 'I' for Inactive)
REMARK    1  A    between atoms: C7_7  and  C4_4 
ROOT
ATOM      1  C1  LG1 d5015      42.642  19.219  45.619  0.00  0.00    -0.004 C 
ATOM      2  C2  LG1 d5015      43.287  20.091  44.536  0.00  0.00    -0.001 C 
ATOM      3  C3  LG1 d5015      43.669  19.280  43.242  0.00  0.00    -0.030 C 
ATOM      4  C4  LG1 d5015      44.196  20.468  42.370  0.00  0.00     0.063 C 
ATOM      5  C5  LG1 d5015      43.221  21.659  42.674  0.00  0.00     0.013 C 
ATOM      6  C6  LG1 d5015      42.469  21.294  44.006  0.00  0.00     0.006 C 
ATOM      7  C9  LG1 d5015      42.436  18.614  42.537  0.00  0.00     0.016 C 
ATOM      8  C10 LG1 d5015      44.730  18.248  43.686  0.00  0.00     0.011 C 
ATOM      9  C11 LG1 d5015      44.177  17.321  44.805  0.00  0.00     0.007 C 
ATOM     10  C12 LG1 d5015      43.676  18.121  46.035  0.00  0.00     0.002 C 
ATOM     11  C13 LG1 d5015      43.135  17.167  47.163  0.00  0.00    -0.016 C 
ATOM     12  C14 LG1 d5015      42.628  18.052  48.373  0.00  0.00    -0.068 C 
ATOM     13  C15 LG1 d5015      42.935  17.814  49.635  0.00  0.00     0.053 C 
ATOM     14  C16 LG1 d5015      43.676  16.626  50.029  0.00  0.00     0.149 C 
ATOM     15  C17 LG1 d5015      44.034  15.568  48.990  0.00  0.00     0.084 C 
ATOM     16  C18 LG1 d5015      44.301  16.254  47.627  0.00  0.00     0.022 C 
ATOM     17  O2  LG1 d5015      43.958  16.428  51.224  0.00  0.00    -0.293 OA
ATOM     18  C19 LG1 d5015      41.763  19.265  48.048  0.00  0.00     0.035 C 
ATOM     19  C20 LG1 d5015      42.320  20.082  46.865  0.00  0.00     0.010 C 
ATOM     20  C21 LG1 d5015      41.898  16.311  46.690  0.00  0.00     0.020 C 
ENDROOT
BRANCH   4  21
ATOM     21  C7  LG1 d5015      44.381  20.143  40.878  0.00  0.00     0.128 C 
ATOM     22  O1  LG1 d5015      45.104  19.231  40.538  0.00  0.00    -0.298 OA
ATOM     23  C8  LG1 d5015      43.660  20.951  39.856  0.00  0.00     0.091 C 
ENDBRANCH   4  21
TORSDOF 1
ENDMDL
