REMARK INTER + INTRA:          -8.509
REMARK INTER:                  -8.303
REMARK INTRA:                  -0.206
REMARK UNBOUND:                -0.204
REMARK  1 active torsions:
REMARK  status: ('A' for Active; 'I' for Inactive)
REMARK    1  A    between atoms: C7_7  and  C4_4 
ROOT
ATOM      1  C1  LG1 d5015      43.625  16.427  46.719  0.00  0.00    -0.004 C 
ATOM      2  C2  LG1 d5015      42.895  17.405  45.793  0.00  0.00    -0.001 C 
ATOM      3  C3  LG1 d5015      43.445  18.876  45.896  0.00  0.00    -0.030 C 
ATOM      4  C4  LG1 d5015      42.554  19.537  44.792  0.00  0.00     0.063 C 
ATOM      5  C5  LG1 d5015      42.472  18.470  43.644  0.00  0.00     0.013 C 
ATOM      6  C6  LG1 d5015      42.907  17.098  44.276  0.00  0.00     0.006 C 
ATOM      7  C9  LG1 d5015      44.959  19.004  45.500  0.00  0.00     0.016 C 
ATOM      8  C10 LG1 d5015      43.170  19.331  47.346  0.00  0.00     0.011 C 
ATOM      9  C11 LG1 d5015      43.856  18.386  48.371  0.00  0.00     0.007 C 
ATOM     10  C12 LG1 d5015      43.417  16.909  48.193  0.00  0.00     0.002 C 
ATOM     11  C13 LG1 d5015      44.109  15.969  49.248  0.00  0.00    -0.016 C 
ATOM     12  C14 LG1 d5015      43.627  14.484  48.992  0.00  0.00    -0.068 C 
ATOM     13  C15 LG1 d5015      43.213  13.672  49.948  0.00  0.00     0.053 C 
ATOM     14  C16 LG1 d5015      43.285  14.048  51.352  0.00  0.00     0.149 C 
ATOM     15  C17 LG1 d5015      43.938  15.365  51.759  0.00  0.00     0.084 C 
ATOM     16  C18 LG1 d5015      43.676  16.430  50.666  0.00  0.00     0.022 C 
ATOM     17  O2  LG1 d5015      42.882  13.269  52.234  0.00  0.00    -0.293 OA
ATOM     18  C19 LG1 d5015      43.615  13.982  47.552  0.00  0.00     0.035 C 
ATOM     19  C20 LG1 d5015      43.010  15.012  46.579  0.00  0.00     0.010 C 
ATOM     20  C21 LG1 d5015      45.680  15.957  49.110  0.00  0.00     0.020 C 
ENDROOT
BRANCH   4  21
ATOM     21  C7  LG1 d5015      43.007  20.938  44.348  0.00  0.00     0.128 C 
ATOM     22  O1  LG1 d5015      42.953  21.870  45.123  0.00  0.00    -0.298 OA
ATOM     23  C8  LG1 d5015      43.518  21.140  42.964  0.00  0.00     0.091 C 
ENDBRANCH   4  21
TORSDOF 1
ENDMDL
