MODEL 1
REMARK VINA RESULT:    -9.192      0.000      0.000
REMARK INTER + INTRA:          -9.927
REMARK INTER:                  -9.737
REMARK INTRA:                  -0.190
REMARK UNBOUND:                -0.198
REMARK  1 active torsions:
REMARK  status: ('A' for Active; 'I' for Inactive)
REMARK    1  A    between atoms: C7_7  and  C4_4 
ROOT
ATOM      1  C1  LG1 d5015      43.015  17.818  44.712  0.00  0.00    -0.004 C 
ATOM      2  C2  LG1 d5015      42.159  18.700  43.797  0.00  0.00    -0.001 C 
ATOM      3  C3  LG1 d5015      42.998  19.798  43.042  0.00  0.00    -0.030 C 
ATOM      4  C4  LG1 d5015      41.849  20.416  42.177  0.00  0.00     0.063 C 
ATOM      5  C5  LG1 d5015      40.978  19.191  41.725  0.00  0.00     0.013 C 
ATOM      6  C6  LG1 d5015      41.353  17.998  42.677  0.00  0.00     0.006 C 
ATOM      7  C9  LG1 d5015      44.104  19.200  42.103  0.00  0.00     0.016 C 
ATOM      8  C10 LG1 d5015      43.582  20.714  44.141  0.00  0.00     0.011 C 
ATOM      9  C11 LG1 d5015      44.457  19.906  45.139  0.00  0.00     0.007 C 
ATOM     10  C12 LG1 d5015      43.673  18.738  45.793  0.00  0.00     0.002 C 
ATOM     11  C13 LG1 d5015      44.569  17.941  46.812  0.00  0.00    -0.016 C 
ATOM     12  C14 LG1 d5015      43.710  16.760  47.422  0.00  0.00    -0.068 C 
ATOM     13  C15 LG1 d5015      43.654  16.484  48.713  0.00  0.00     0.053 C 
ATOM     14  C16 LG1 d5015      44.490  17.181  49.678  0.00  0.00     0.149 C 
ATOM     15  C17 LG1 d5015      45.531  18.189  49.203  0.00  0.00     0.084 C 
ATOM     16  C18 LG1 d5015      45.006  18.915  47.939  0.00  0.00     0.022 C 
ATOM     17  O2  LG1 d5015      44.414  16.908  50.890  0.00  0.00    -0.293 OA
ATOM     18  C19 LG1 d5015      42.879  15.919  46.459  0.00  0.00     0.035 C 
ATOM     19  C20 LG1 d5015      42.116  16.784  45.436  0.00  0.00     0.010 C 
ATOM     20  C21 LG1 d5015      45.819  17.271  46.124  0.00  0.00     0.020 C 
ENDROOT
BRANCH   4  21
ATOM     21  C7  LG1 d5015      42.320  21.337  41.040  0.00  0.00     0.128 C 
ATOM     22  O1  LG1 d5015      42.764  22.437  41.290  0.00  0.00    -0.298 OA
ATOM     23  C8  LG1 d5015      42.234  20.863  39.630  0.00  0.00     0.091 C 
ENDBRANCH   4  21
TORSDOF 1
ENDMDL
MODEL 2
REMARK VINA RESULT:    -8.584      1.445      6.890
REMARK INTER + INTRA:          -9.284
REMARK INTER:                  -9.081
REMARK INTRA:                  -0.203
REMARK UNBOUND:                -0.198
REMARK  1 active torsions:
REMARK  status: ('A' for Active; 'I' for Inactive)
REMARK    1  A    between atoms: C7_7  and  C4_4 
ROOT
ATOM      1  C1  LG1 d5015      42.657  17.996  44.713  0.00  0.00    -0.004 C 
ATOM      2  C2  LG1 d5015      43.284  16.804  45.444  0.00  0.00    -0.001 C 
ATOM      3  C3  LG1 d5015      44.187  17.234  46.659  0.00  0.00    -0.030 C 
ATOM      4  C4  LG1 d5015      44.564  15.810  47.186  0.00  0.00     0.063 C 
ATOM      5  C5  LG1 d5015      43.254  14.961  47.035  0.00  0.00     0.013 C 
ATOM      6  C6  LG1 d5015      42.325  15.744  46.038  0.00  0.00     0.006 C 
ATOM      7  C9  LG1 d5015      43.404  18.018  47.770  0.00  0.00     0.016 C 
ATOM      8  C10 LG1 d5015      45.346  18.058  46.054  0.00  0.00     0.011 C 
ATOM      9  C11 LG1 d5015      44.810  19.288  45.269  0.00  0.00     0.007 C 
ATOM     10  C12 LG1 d5015      43.816  18.882  44.150  0.00  0.00     0.002 C 
ATOM     11  C13 LG1 d5015      43.297  20.138  43.357  0.00  0.00    -0.016 C 
ATOM     12  C14 LG1 d5015      42.278  19.648  42.249  0.00  0.00    -0.068 C 
ATOM     13  C15 LG1 d5015      42.313  20.050  40.991  0.00  0.00     0.053 C 
ATOM     14  C16 LG1 d5015      43.231  21.087  40.547  0.00  0.00     0.149 C 
ATOM     15  C17 LG1 d5015      44.117  21.809  41.558  0.00  0.00     0.084 C 
ATOM     16  C18 LG1 d5015      44.516  20.828  42.688  0.00  0.00     0.022 C 
ATOM     17  O2  LG1 d5015      43.250  21.444  39.356  0.00  0.00    -0.293 OA
ATOM     18  C19 LG1 d5015      41.221  18.630  42.661  0.00  0.00     0.035 C 
ATOM     19  C20 LG1 d5015      41.807  17.491  43.519  0.00  0.00     0.010 C 
ATOM     20  C21 LG1 d5015      42.505  21.148  44.273  0.00  0.00     0.020 C 
ENDROOT
BRANCH   4  21
ATOM     21  C7  LG1 d5015      45.200  15.785  48.586  0.00  0.00     0.128 C 
ATOM     22  O1  LG1 d5015      46.292  16.280  48.769  0.00  0.00    -0.298 OA
ATOM     23  C8  LG1 d5015      44.460  15.157  49.716  0.00  0.00     0.091 C 
ENDBRANCH   4  21
TORSDOF 1
ENDMDL
MODEL 3
REMARK VINA RESULT:    -8.019      1.707      2.637
REMARK INTER + INTRA:          -8.686
REMARK INTER:                  -8.650
REMARK INTRA:                  -0.037
REMARK UNBOUND:                -0.198
REMARK  1 active torsions:
REMARK  status: ('A' for Active; 'I' for Inactive)
REMARK    1  A    between atoms: C7_7  and  C4_4 
ROOT
ATOM      1  C1  LG1 d5015      42.612  19.393  45.414  0.00  0.00    -0.004 C 
ATOM      2  C2  LG1 d5015      43.308  20.225  44.332  0.00  0.00    -0.001 C 
ATOM      3  C3  LG1 d5015      43.715  19.376  43.071  0.00  0.00    -0.030 C 
ATOM      4  C4  LG1 d5015      44.293  20.532  42.188  0.00  0.00     0.063 C 
ATOM      5  C5  LG1 d5015      43.333  21.749  42.433  0.00  0.00     0.013 C 
ATOM      6  C6  LG1 d5015      42.532  21.431  43.747  0.00  0.00     0.006 C 
ATOM      7  C9  LG1 d5015      42.491  18.717  42.343  0.00  0.00     0.016 C 
ATOM      8  C10 LG1 d5015      44.740  18.335  43.573  0.00  0.00     0.011 C 
ATOM      9  C11 LG1 d5015      44.133  17.447  44.695  0.00  0.00     0.007 C 
ATOM     10  C12 LG1 d5015      43.610  18.286  45.889  0.00  0.00     0.002 C 
ATOM     11  C13 LG1 d5015      43.014  17.370  47.021  0.00  0.00    -0.016 C 
ATOM     12  C14 LG1 d5015      42.486  18.294  48.193  0.00  0.00    -0.068 C 
ATOM     13  C15 LG1 d5015      42.748  18.081  49.470  0.00  0.00     0.053 C 
ATOM     14  C16 LG1 d5015      43.452  16.888  49.916  0.00  0.00     0.149 C 
ATOM     15  C17 LG1 d5015      43.822  15.799  48.914  0.00  0.00     0.084 C 
ATOM     16  C18 LG1 d5015      44.146  16.446  47.544  0.00  0.00     0.022 C 
ATOM     17  O2  LG1 d5015      43.693  16.713  51.123  0.00  0.00    -0.293 OA
ATOM     18  C19 LG1 d5015      41.657  19.515  47.811  0.00  0.00     0.035 C 
ATOM     19  C20 LG1 d5015      42.268  20.292  46.629  0.00  0.00     0.010 C 
ATOM     20  C21 LG1 d5015      41.775  16.527  46.529  0.00  0.00     0.020 C 
ENDROOT
BRANCH   4  21
ATOM     21  C7  LG1 d5015      44.519  20.167  40.711  0.00  0.00     0.128 C 
ATOM     22  O1  LG1 d5015      45.053  19.119  40.416  0.00  0.00    -0.298 OA
ATOM     23  C8  LG1 d5015      44.069  21.107  39.646  0.00  0.00     0.091 C 
ENDBRANCH   4  21
TORSDOF 1
ENDMDL
MODEL 4
REMARK VINA RESULT:    -7.604      1.975      7.156
REMARK INTER + INTRA:          -8.247
REMARK INTER:                  -8.049
REMARK INTRA:                  -0.198
REMARK UNBOUND:                -0.198
REMARK  1 active torsions:
REMARK  status: ('A' for Active; 'I' for Inactive)
REMARK    1  A    between atoms: C7_7  and  C4_4 
ROOT
ATOM      1  C1  LG1 d5015      43.998  17.094  46.746  0.00  0.00    -0.004 C 
ATOM      2  C2  LG1 d5015      45.193  16.333  47.330  0.00  0.00    -0.001 C 
ATOM      3  C3  LG1 d5015      46.052  17.205  48.320  0.00  0.00    -0.030 C 
ATOM      4  C4  LG1 d5015      47.082  16.112  48.760  0.00  0.00     0.063 C 
ATOM      5  C5  LG1 d5015      46.241  14.794  48.900  0.00  0.00     0.013 C 
ATOM      6  C6  LG1 d5015      44.897  15.036  48.122  0.00  0.00     0.006 C 
ATOM      7  C9  LG1 d5015      45.246  17.705  49.570  0.00  0.00     0.016 C 
ATOM      8  C10 LG1 d5015      46.622  18.366  47.475  0.00  0.00     0.011 C 
ATOM      9  C11 LG1 d5015      45.482  19.194  46.819  0.00  0.00     0.007 C 
ATOM     10  C12 LG1 d5015      44.551  18.317  45.942  0.00  0.00     0.002 C 
ATOM     11  C13 LG1 d5015      43.413  19.174  45.273  0.00  0.00    -0.016 C 
ATOM     12  C14 LG1 d5015      42.497  18.212  44.413  0.00  0.00    -0.068 C 
ATOM     13  C15 LG1 d5015      42.117  18.473  43.175  0.00  0.00     0.053 C 
ATOM     14  C16 LG1 d5015      42.415  19.746  42.539  0.00  0.00     0.149 C 
ATOM     15  C17 LG1 d5015      43.098  20.857  43.331  0.00  0.00     0.084 C 
ATOM     16  C18 LG1 d5015      44.080  20.232  44.354  0.00  0.00     0.022 C 
ATOM     17  O2  LG1 d5015      42.052  19.966  41.369  0.00  0.00    -0.293 OA
ATOM     18  C19 LG1 d5015      42.061  16.896  45.048  0.00  0.00     0.035 C 
ATOM     19  C20 LG1 d5015      43.221  16.179  45.765  0.00  0.00     0.010 C 
ATOM     20  C21 LG1 d5015      42.467  19.858  46.333  0.00  0.00     0.020 C 
ENDROOT
BRANCH   4  21
ATOM     21  C7  LG1 d5015      47.928  16.478  49.991  0.00  0.00     0.128 C 
ATOM     22  O1  LG1 d5015      48.684  17.426  49.951  0.00  0.00    -0.298 OA
ATOM     23  C8  LG1 d5015      47.805  15.667  51.234  0.00  0.00     0.091 C 
ENDBRANCH   4  21
TORSDOF 1
ENDMDL
