REMARK INTER + INTRA:          -8.247
REMARK INTER:                  -8.049
REMARK INTRA:                  -0.198
REMARK UNBOUND:                -0.198
REMARK  1 active torsions:
REMARK  status: ('A' for Active; 'I' for Inactive)
REMARK    1  A    between atoms: C7_7  and  C4_4 
ROOT
ATOM      1  C1  LG1 d5015      43.998  17.094  46.746  0.00  0.00    -0.004 C 
ATOM      2  C2  LG1 d5015      45.193  16.333  47.330  0.00  0.00    -0.001 C 
ATOM      3  C3  LG1 d5015      46.052  17.205  48.320  0.00  0.00    -0.030 C 
ATOM      4  C4  LG1 d5015      47.082  16.112  48.760  0.00  0.00     0.063 C 
ATOM      5  C5  LG1 d5015      46.241  14.794  48.900  0.00  0.00     0.013 C 
ATOM      6  C6  LG1 d5015      44.897  15.036  48.122  0.00  0.00     0.006 C 
ATOM      7  C9  LG1 d5015      45.246  17.705  49.570  0.00  0.00     0.016 C 
ATOM      8  C10 LG1 d5015      46.622  18.366  47.475  0.00  0.00     0.011 C 
ATOM      9  C11 LG1 d5015      45.482  19.194  46.819  0.00  0.00     0.007 C 
ATOM     10  C12 LG1 d5015      44.551  18.317  45.942  0.00  0.00     0.002 C 
ATOM     11  C13 LG1 d5015      43.413  19.174  45.273  0.00  0.00    -0.016 C 
ATOM     12  C14 LG1 d5015      42.497  18.212  44.413  0.00  0.00    -0.068 C 
ATOM     13  C15 LG1 d5015      42.117  18.473  43.175  0.00  0.00     0.053 C 
ATOM     14  C16 LG1 d5015      42.415  19.746  42.539  0.00  0.00     0.149 C 
ATOM     15  C17 LG1 d5015      43.098  20.857  43.331  0.00  0.00     0.084 C 
ATOM     16  C18 LG1 d5015      44.080  20.232  44.354  0.00  0.00     0.022 C 
ATOM     17  O2  LG1 d5015      42.052  19.966  41.369  0.00  0.00    -0.293 OA
ATOM     18  C19 LG1 d5015      42.061  16.896  45.048  0.00  0.00     0.035 C 
ATOM     19  C20 LG1 d5015      43.221  16.179  45.765  0.00  0.00     0.010 C 
ATOM     20  C21 LG1 d5015      42.467  19.858  46.333  0.00  0.00     0.020 C 
ENDROOT
BRANCH   4  21
ATOM     21  C7  LG1 d5015      47.928  16.478  49.991  0.00  0.00     0.128 C 
ATOM     22  O1  LG1 d5015      48.684  17.426  49.951  0.00  0.00    -0.298 OA
ATOM     23  C8  LG1 d5015      47.805  15.667  51.234  0.00  0.00     0.091 C 
ENDBRANCH   4  21
TORSDOF 1
ENDMDL
