REMARK INTER + INTRA:          -8.482
REMARK INTER:                  -8.318
REMARK INTRA:                  -0.163
REMARK UNBOUND:                -0.204
REMARK  1 active torsions:
REMARK  status: ('A' for Active; 'I' for Inactive)
REMARK    1  A    between atoms: C7_7  and  C4_4 
ROOT
ATOM      1  C1  LG1 d5015      42.815  18.663  46.539  0.00  0.00    -0.004 C 
ATOM      2  C2  LG1 d5015      43.357  19.790  45.652  0.00  0.00    -0.001 C 
ATOM      3  C3  LG1 d5015      43.647  19.323  44.177  0.00  0.00    -0.030 C 
ATOM      4  C4  LG1 d5015      44.082  20.702  43.578  0.00  0.00     0.063 C 
ATOM      5  C5  LG1 d5015      43.115  21.752  44.230  0.00  0.00     0.013 C 
ATOM      6  C6  LG1 d5015      42.479  21.054  45.487  0.00  0.00     0.006 C 
ATOM      7  C9  LG1 d5015      42.372  18.800  43.427  0.00  0.00     0.016 C 
ATOM      8  C10 LG1 d5015      44.757  18.254  44.282  0.00  0.00     0.011 C 
ATOM      9  C11 LG1 d5015      44.311  17.069  45.184  0.00  0.00     0.007 C 
ATOM     10  C12 LG1 d5015      43.898  17.536  46.604  0.00  0.00     0.002 C 
ATOM     11  C13 LG1 d5015      43.465  16.322  47.507  0.00  0.00    -0.016 C 
ATOM     12  C14 LG1 d5015      43.042  16.877  48.927  0.00  0.00    -0.068 C 
ATOM     13  C15 LG1 d5015      43.453  16.358  50.070  0.00  0.00     0.053 C 
ATOM     14  C16 LG1 d5015      44.243  15.137  50.113  0.00  0.00     0.149 C 
ATOM     15  C17 LG1 d5015      44.535  14.369  48.827  0.00  0.00     0.084 C 
ATOM     16  C18 LG1 d5015      44.680  15.367  47.651  0.00  0.00     0.022 C 
ATOM     17  O2  LG1 d5015      44.625  14.671  51.201  0.00  0.00    -0.293 OA
ATOM     18  C19 LG1 d5015      42.134  18.101  48.967  0.00  0.00     0.035 C 
ATOM     19  C20 LG1 d5015      42.580  19.194  47.977  0.00  0.00     0.010 C 
ATOM     20  C21 LG1 d5015      42.209  15.560  46.936  0.00  0.00     0.020 C 
ENDROOT
BRANCH   4  21
ATOM     21  C7  LG1 d5015      44.153  20.747  42.042  0.00  0.00     0.128 C 
ATOM     22  O1  LG1 d5015      44.857  19.964  41.441  0.00  0.00    -0.298 OA
ATOM     23  C8  LG1 d5015      43.342  21.752  41.299  0.00  0.00     0.091 C 
ENDBRANCH   4  21
TORSDOF 1
ENDMDL
