REMARK INTER + INTRA:          -8.735
REMARK INTER:                  -8.684
REMARK INTRA:                  -0.051
REMARK UNBOUND:                -0.204
REMARK  1 active torsions:
REMARK  status: ('A' for Active; 'I' for Inactive)
REMARK    1  A    between atoms: C7_7  and  C4_4 
ROOT
ATOM      1  C1  LG1 d5015      42.636  19.150  45.757  0.00  0.00    -0.004 C 
ATOM      2  C2  LG1 d5015      43.283  20.036  44.688  0.00  0.00    -0.001 C 
ATOM      3  C3  LG1 d5015      43.680  19.241  43.388  0.00  0.00    -0.030 C 
ATOM      4  C4  LG1 d5015      44.205  20.441  42.531  0.00  0.00     0.063 C 
ATOM      5  C5  LG1 d5015      43.221  21.623  42.841  0.00  0.00     0.013 C 
ATOM      6  C6  LG1 d5015      42.463  21.240  44.163  0.00  0.00     0.006 C 
ATOM      7  C9  LG1 d5015      42.455  18.574  42.668  0.00  0.00     0.016 C 
ATOM      8  C10 LG1 d5015      44.743  18.211  43.830  0.00  0.00     0.011 C 
ATOM      9  C11 LG1 d5015      44.188  17.270  44.935  0.00  0.00     0.007 C 
ATOM     10  C12 LG1 d5015      43.674  18.054  46.170  0.00  0.00     0.002 C 
ATOM     11  C13 LG1 d5015      43.130  17.085  47.284  0.00  0.00    -0.016 C 
ATOM     12  C14 LG1 d5015      42.609  17.956  48.499  0.00  0.00    -0.068 C 
ATOM     13  C15 LG1 d5015      42.908  17.707  49.761  0.00  0.00     0.053 C 
ATOM     14  C16 LG1 d5015      43.653  16.519  50.149  0.00  0.00     0.149 C 
ATOM     15  C17 LG1 d5015      44.025  15.474  49.101  0.00  0.00     0.084 C 
ATOM     16  C18 LG1 d5015      44.299  16.175  47.747  0.00  0.00     0.022 C 
ATOM     17  O2  LG1 d5015      43.929  16.311  51.344  0.00  0.00    -0.293 OA
ATOM     18  C19 LG1 d5015      41.739  19.167  48.180  0.00  0.00     0.035 C 
ATOM     19  C20 LG1 d5015      42.300  19.998  47.010  0.00  0.00     0.010 C 
ATOM     20  C21 LG1 d5015      41.901  16.227  46.794  0.00  0.00     0.020 C 
ENDROOT
BRANCH   4  21
ATOM     21  C7  LG1 d5015      44.403  20.131  41.038  0.00  0.00     0.128 C 
ATOM     22  O1  LG1 d5015      44.971  19.116  40.695  0.00  0.00    -0.298 OA
ATOM     23  C8  LG1 d5015      43.885  21.084  40.017  0.00  0.00     0.091 C 
ENDBRANCH   4  21
TORSDOF 1
ENDMDL
