REMARK INTER + INTRA:          -9.922
REMARK INTER:                  -9.733
REMARK INTRA:                  -0.188
REMARK UNBOUND:                -0.153
REMARK  1 active torsions:
REMARK  status: ('A' for Active; 'I' for Inactive)
REMARK    1  A    between atoms: C7_7  and  C4_4 
ROOT
ATOM      1  C1  LG1 d5015      43.019  17.804  44.722  0.00  0.00    -0.004 C 
ATOM      2  C2  LG1 d5015      42.166  18.691  43.808  0.00  0.00    -0.001 C 
ATOM      3  C3  LG1 d5015      43.010  19.783  43.051  0.00  0.00    -0.030 C 
ATOM      4  C4  LG1 d5015      41.863  20.407  42.188  0.00  0.00     0.063 C 
ATOM      5  C5  LG1 d5015      40.984  19.188  41.738  0.00  0.00     0.013 C 
ATOM      6  C6  LG1 d5015      41.353  17.993  42.690  0.00  0.00     0.006 C 
ATOM      7  C9  LG1 d5015      44.110  19.177  42.109  0.00  0.00     0.016 C 
ATOM      8  C10 LG1 d5015      43.602  20.696  44.147  0.00  0.00     0.011 C 
ATOM      9  C11 LG1 d5015      44.474  19.883  45.144  0.00  0.00     0.007 C 
ATOM     10  C12 LG1 d5015      43.684  18.721  45.801  0.00  0.00     0.002 C 
ATOM     11  C13 LG1 d5015      44.577  17.919  46.819  0.00  0.00    -0.016 C 
ATOM     12  C14 LG1 d5015      43.712  16.743  47.431  0.00  0.00    -0.068 C 
ATOM     13  C15 LG1 d5015      43.657  16.469  48.722  0.00  0.00     0.053 C 
ATOM     14  C16 LG1 d5015      44.499  17.161  49.686  0.00  0.00     0.149 C 
ATOM     15  C17 LG1 d5015      45.546  18.163  49.207  0.00  0.00     0.084 C 
ATOM     16  C18 LG1 d5015      45.023  18.891  47.944  0.00  0.00     0.022 C 
ATOM     17  O2  LG1 d5015      44.424  16.889  50.897  0.00  0.00    -0.293 OA
ATOM     18  C19 LG1 d5015      42.873  15.908  46.470  0.00  0.00     0.035 C 
ATOM     19  C20 LG1 d5015      42.114  16.776  45.448  0.00  0.00     0.010 C 
ATOM     20  C21 LG1 d5015      45.822  17.240  46.128  0.00  0.00     0.020 C 
ENDROOT
BRANCH   4  21
ATOM     21  C7  LG1 d5015      42.338  21.325  41.048  0.00  0.00     0.128 C 
ATOM     22  O1  LG1 d5015      42.786  22.423  41.297  0.00  0.00    -0.298 OA
ATOM     23  C8  LG1 d5015      42.248  20.850  39.639  0.00  0.00     0.091 C 
ENDBRANCH   4  21
TORSDOF 1
ENDMDL
