REMARK INTER + INTRA:          -8.284
REMARK INTER:                  -8.080
REMARK INTRA:                  -0.204
REMARK UNBOUND:                -0.204
REMARK  1 active torsions:
REMARK  status: ('A' for Active; 'I' for Inactive)
REMARK    1  A    between atoms: C7_7  and  C4_4 
ROOT
ATOM      1  C1  LG1 d5015      43.927  17.095  46.684  0.00  0.00    -0.004 C 
ATOM      2  C2  LG1 d5015      45.096  16.309  47.286  0.00  0.00    -0.001 C 
ATOM      3  C3  LG1 d5015      45.960  17.163  48.287  0.00  0.00    -0.030 C 
ATOM      4  C4  LG1 d5015      46.959  16.048  48.743  0.00  0.00     0.063 C 
ATOM      5  C5  LG1 d5015      46.088  14.750  48.873  0.00  0.00     0.013 C 
ATOM      6  C6  LG1 d5015      44.760  15.020  48.076  0.00  0.00     0.006 C 
ATOM      7  C9  LG1 d5015      45.148  17.683  49.525  0.00  0.00     0.016 C 
ATOM      8  C10 LG1 d5015      46.567  18.310  47.449  0.00  0.00     0.011 C 
ATOM      9  C11 LG1 d5015      45.456  19.162  46.775  0.00  0.00     0.007 C 
ATOM     10  C12 LG1 d5015      44.518  18.304  45.887  0.00  0.00     0.002 C 
ATOM     11  C13 LG1 d5015      43.409  19.185  45.200  0.00  0.00    -0.016 C 
ATOM     12  C14 LG1 d5015      42.483  18.242  44.329  0.00  0.00    -0.068 C 
ATOM     13  C15 LG1 d5015      42.127  18.510  43.086  0.00  0.00     0.053 C 
ATOM     14  C16 LG1 d5015      42.462  19.775  42.452  0.00  0.00     0.149 C 
ATOM     15  C17 LG1 d5015      43.158  20.871  43.252  0.00  0.00     0.084 C 
ATOM     16  C18 LG1 d5015      44.112  20.227  44.289  0.00  0.00     0.022 C 
ATOM     17  O2  LG1 d5015      42.121  20.001  41.277  0.00  0.00    -0.293 OA
ATOM     18  C19 LG1 d5015      42.009  16.937  44.960  0.00  0.00     0.035 C 
ATOM     19  C20 LG1 d5015      43.143  16.196  45.694  0.00  0.00     0.010 C 
ATOM     20  C21 LG1 d5015      42.463  19.892  46.246  0.00  0.00     0.020 C 
ENDROOT
BRANCH   4  21
ATOM     21  C7  LG1 d5015      47.796  16.398  49.985  0.00  0.00     0.128 C 
ATOM     22  O1  LG1 d5015      48.624  17.283  49.933  0.00  0.00    -0.298 OA
ATOM     23  C8  LG1 d5015      47.577  15.648  51.253  0.00  0.00     0.091 C 
ENDBRANCH   4  21
TORSDOF 1
ENDMDL
