REMARK INTER + INTRA:          -9.306
REMARK INTER:                  -9.102
REMARK INTRA:                  -0.204
REMARK UNBOUND:                -0.204
REMARK  1 active torsions:
REMARK  status: ('A' for Active; 'I' for Inactive)
REMARK    1  A    between atoms: C7_7  and  C4_4 
ROOT
ATOM      1  C1  LG1 d5015      42.686  17.993  44.730  0.00  0.00    -0.004 C 
ATOM      2  C2  LG1 d5015      43.330  16.807  45.456  0.00  0.00    -0.001 C 
ATOM      3  C3  LG1 d5015      44.247  17.247  46.658  0.00  0.00    -0.030 C 
ATOM      4  C4  LG1 d5015      44.639  15.827  47.185  0.00  0.00     0.063 C 
ATOM      5  C5  LG1 d5015      43.331  14.970  47.054  0.00  0.00     0.013 C 
ATOM      6  C6  LG1 d5015      42.385  15.744  46.066  0.00  0.00     0.006 C 
ATOM      7  C9  LG1 d5015      43.473  18.031  47.777  0.00  0.00     0.016 C 
ATOM      8  C10 LG1 d5015      45.392  18.076  46.035  0.00  0.00     0.011 C 
ATOM      9  C11 LG1 d5015      44.840  19.300  45.254  0.00  0.00     0.007 C 
ATOM     10  C12 LG1 d5015      43.834  18.885  44.149  0.00  0.00     0.002 C 
ATOM     11  C13 LG1 d5015      43.297  20.135  43.358  0.00  0.00    -0.016 C 
ATOM     12  C14 LG1 d5015      42.266  19.635  42.266  0.00  0.00    -0.068 C 
ATOM     13  C15 LG1 d5015      42.283  20.033  41.006  0.00  0.00     0.053 C 
ATOM     14  C16 LG1 d5015      43.189  21.074  40.546  0.00  0.00     0.149 C 
ATOM     15  C17 LG1 d5015      44.084  21.804  41.544  0.00  0.00     0.084 C 
ATOM     16  C18 LG1 d5015      44.503  20.829  42.671  0.00  0.00     0.022 C 
ATOM     17  O2  LG1 d5015      43.190  21.427  39.354  0.00  0.00    -0.293 OA
ATOM     18  C19 LG1 d5015      41.220  18.612  42.695  0.00  0.00     0.035 C 
ATOM     19  C20 LG1 d5015      41.824  17.480  43.548  0.00  0.00     0.010 C 
ATOM     20  C21 LG1 d5015      42.511  21.143  44.281  0.00  0.00     0.020 C 
ENDROOT
BRANCH   4  21
ATOM     21  C7  LG1 d5015      45.292  15.811  48.577  0.00  0.00     0.128 C 
ATOM     22  O1  LG1 d5015      46.379  16.322  48.746  0.00  0.00    -0.298 OA
ATOM     23  C8  LG1 d5015      44.578  15.170  49.716  0.00  0.00     0.091 C 
ENDBRANCH   4  21
TORSDOF 1
ENDMDL
