MODEL 1
REMARK VINA RESULT:    -9.182      0.000      0.000
REMARK INTER + INTRA:          -9.922
REMARK INTER:                  -9.727
REMARK INTRA:                  -0.195
REMARK UNBOUND:                -0.204
REMARK  1 active torsions:
REMARK  status: ('A' for Active; 'I' for Inactive)
REMARK    1  A    between atoms: C7_7  and  C4_4 
ROOT
ATOM      1  C1  LG1 d5015      43.010  17.808  44.715  0.00  0.00    -0.004 C 
ATOM      2  C2  LG1 d5015      42.174  18.694  43.784  0.00  0.00    -0.001 C 
ATOM      3  C3  LG1 d5015      43.029  19.789  43.046  0.00  0.00    -0.030 C 
ATOM      4  C4  LG1 d5015      41.899  20.411  42.160  0.00  0.00     0.063 C 
ATOM      5  C5  LG1 d5015      41.033  19.189  41.691  0.00  0.00     0.013 C 
ATOM      6  C6  LG1 d5015      41.386  17.995  42.649  0.00  0.00     0.006 C 
ATOM      7  C9  LG1 d5015      44.151  19.189  42.127  0.00  0.00     0.016 C 
ATOM      8  C10 LG1 d5015      43.595  20.703  44.156  0.00  0.00     0.011 C 
ATOM      9  C11 LG1 d5015      44.449  19.892  45.170  0.00  0.00     0.007 C 
ATOM     10  C12 LG1 d5015      43.650  18.726  45.808  0.00  0.00     0.002 C 
ATOM     11  C13 LG1 d5015      44.524  17.926  46.843  0.00  0.00    -0.016 C 
ATOM     12  C14 LG1 d5015      43.651  16.747  47.436  0.00  0.00    -0.068 C 
ATOM     13  C15 LG1 d5015      43.570  16.470  48.725  0.00  0.00     0.053 C 
ATOM     14  C16 LG1 d5015      44.390  17.164  49.707  0.00  0.00     0.149 C 
ATOM     15  C17 LG1 d5015      45.442  18.170  49.251  0.00  0.00     0.084 C 
ATOM     16  C18 LG1 d5015      44.944  18.898  47.978  0.00  0.00     0.022 C 
ATOM     17  O2  LG1 d5015      44.291  16.890  50.916  0.00  0.00    -0.293 OA
ATOM     18  C19 LG1 d5015      42.835  15.909  46.457  0.00  0.00     0.035 C 
ATOM     19  C20 LG1 d5015      42.094  16.776  45.421  0.00  0.00     0.010 C 
ATOM     20  C21 LG1 d5015      45.786  17.252  46.178  0.00  0.00     0.020 C 
ENDROOT
BRANCH   4  21
ATOM     21  C7  LG1 d5015      42.393  21.331  41.032  0.00  0.00     0.128 C 
ATOM     22  O1  LG1 d5015      42.856  22.421  41.292  0.00  0.00    -0.298 OA
ATOM     23  C8  LG1 d5015      42.306  20.871  39.618  0.00  0.00     0.091 C 
ENDBRANCH   4  21
TORSDOF 1
ENDMDL
MODEL 2
REMARK VINA RESULT:    -8.563      1.465      6.889
REMARK INTER + INTRA:          -9.267
REMARK INTER:                  -9.065
REMARK INTRA:                  -0.202
REMARK UNBOUND:                -0.204
REMARK  1 active torsions:
REMARK  status: ('A' for Active; 'I' for Inactive)
REMARK    1  A    between atoms: C7_7  and  C4_4 
ROOT
ATOM      1  C1  LG1 d5015      42.651  17.994  44.711  0.00  0.00    -0.004 C 
ATOM      2  C2  LG1 d5015      43.265  16.788  45.431  0.00  0.00    -0.001 C 
ATOM      3  C3  LG1 d5015      44.176  17.198  46.647  0.00  0.00    -0.030 C 
ATOM      4  C4  LG1 d5015      44.537  15.765  47.162  0.00  0.00     0.063 C 
ATOM      5  C5  LG1 d5015      43.216  14.933  47.007  0.00  0.00     0.013 C 
ATOM      6  C6  LG1 d5015      42.294  15.735  46.019  0.00  0.00     0.006 C 
ATOM      7  C9  LG1 d5015      43.406  17.983  47.766  0.00  0.00     0.016 C 
ATOM      8  C10 LG1 d5015      45.344  18.013  46.046  0.00  0.00     0.011 C 
ATOM      9  C11 LG1 d5015      44.821  19.255  45.273  0.00  0.00     0.007 C 
ATOM     10  C12 LG1 d5015      43.820  18.871  44.153  0.00  0.00     0.002 C 
ATOM     11  C13 LG1 d5015      43.314  20.139  43.371  0.00  0.00    -0.016 C 
ATOM     12  C14 LG1 d5015      42.286  19.671  42.262  0.00  0.00    -0.068 C 
ATOM     13  C15 LG1 d5015      42.323  20.083  41.007  0.00  0.00     0.053 C 
ATOM     14  C16 LG1 d5015      43.253  21.112  40.569  0.00  0.00     0.149 C 
ATOM     15  C17 LG1 d5015      44.150  21.815  41.584  0.00  0.00     0.084 C 
ATOM     16  C18 LG1 d5015      44.540  20.819  42.705  0.00  0.00     0.022 C 
ATOM     17  O2  LG1 d5015      43.273  21.479  39.380  0.00  0.00    -0.293 OA
ATOM     18  C19 LG1 d5015      41.217  18.662  42.668  0.00  0.00     0.035 C 
ATOM     19  C20 LG1 d5015      41.792  17.510  43.515  0.00  0.00     0.010 C 
ATOM     20  C21 LG1 d5015      42.536  21.152  44.297  0.00  0.00     0.020 C 
ENDROOT
BRANCH   4  21
ATOM     21  C7  LG1 d5015      45.176  15.721  48.560  0.00  0.00     0.128 C 
ATOM     22  O1  LG1 d5015      46.294  16.155  48.734  0.00  0.00    -0.298 OA
ATOM     23  C8  LG1 d5015      44.407  15.150  49.700  0.00  0.00     0.091 C 
ENDBRANCH   4  21
TORSDOF 1
ENDMDL
MODEL 3
REMARK VINA RESULT:    -8.063      1.629      2.562
REMARK INTER + INTRA:          -8.738
REMARK INTER:                  -8.573
REMARK INTRA:                  -0.165
REMARK UNBOUND:                -0.204
REMARK  1 active torsions:
REMARK  status: ('A' for Active; 'I' for Inactive)
REMARK    1  A    between atoms: C7_7  and  C4_4 
ROOT
ATOM      1  C1  LG1 d5015      42.642  19.219  45.619  0.00  0.00    -0.004 C 
ATOM      2  C2  LG1 d5015      43.287  20.091  44.536  0.00  0.00    -0.001 C 
ATOM      3  C3  LG1 d5015      43.669  19.280  43.242  0.00  0.00    -0.030 C 
ATOM      4  C4  LG1 d5015      44.196  20.468  42.370  0.00  0.00     0.063 C 
ATOM      5  C5  LG1 d5015      43.221  21.659  42.674  0.00  0.00     0.013 C 
ATOM      6  C6  LG1 d5015      42.469  21.294  44.006  0.00  0.00     0.006 C 
ATOM      7  C9  LG1 d5015      42.436  18.614  42.537  0.00  0.00     0.016 C 
ATOM      8  C10 LG1 d5015      44.730  18.248  43.686  0.00  0.00     0.011 C 
ATOM      9  C11 LG1 d5015      44.177  17.321  44.805  0.00  0.00     0.007 C 
ATOM     10  C12 LG1 d5015      43.676  18.121  46.035  0.00  0.00     0.002 C 
ATOM     11  C13 LG1 d5015      43.135  17.167  47.163  0.00  0.00    -0.016 C 
ATOM     12  C14 LG1 d5015      42.628  18.052  48.373  0.00  0.00    -0.068 C 
ATOM     13  C15 LG1 d5015      42.935  17.814  49.635  0.00  0.00     0.053 C 
ATOM     14  C16 LG1 d5015      43.676  16.626  50.029  0.00  0.00     0.149 C 
ATOM     15  C17 LG1 d5015      44.034  15.568  48.990  0.00  0.00     0.084 C 
ATOM     16  C18 LG1 d5015      44.301  16.254  47.627  0.00  0.00     0.022 C 
ATOM     17  O2  LG1 d5015      43.958  16.428  51.224  0.00  0.00    -0.293 OA
ATOM     18  C19 LG1 d5015      41.763  19.265  48.048  0.00  0.00     0.035 C 
ATOM     19  C20 LG1 d5015      42.320  20.082  46.865  0.00  0.00     0.010 C 
ATOM     20  C21 LG1 d5015      41.898  16.311  46.690  0.00  0.00     0.020 C 
ENDROOT
BRANCH   4  21
ATOM     21  C7  LG1 d5015      44.381  20.143  40.878  0.00  0.00     0.128 C 
ATOM     22  O1  LG1 d5015      45.104  19.231  40.538  0.00  0.00    -0.298 OA
ATOM     23  C8  LG1 d5015      43.660  20.951  39.856  0.00  0.00     0.091 C 
ENDBRANCH   4  21
TORSDOF 1
ENDMDL
MODEL 4
REMARK VINA RESULT:    -7.867      1.958      3.154
REMARK INTER + INTRA:          -8.531
REMARK INTER:                  -8.329
REMARK INTRA:                  -0.202
REMARK UNBOUND:                -0.204
REMARK  1 active torsions:
REMARK  status: ('A' for Active; 'I' for Inactive)
REMARK    1  A    between atoms: C7_7  and  C4_4 
ROOT
ATOM      1  C1  LG1 d5015      43.621  16.442  46.709  0.00  0.00    -0.004 C 
ATOM      2  C2  LG1 d5015      42.886  17.400  45.766  0.00  0.00    -0.001 C 
ATOM      3  C3  LG1 d5015      43.431  18.875  45.840  0.00  0.00    -0.030 C 
ATOM      4  C4  LG1 d5015      42.537  19.511  44.725  0.00  0.00     0.063 C 
ATOM      5  C5  LG1 d5015      42.456  18.422  43.598  0.00  0.00     0.013 C 
ATOM      6  C6  LG1 d5015      42.897  17.064  44.255  0.00  0.00     0.006 C 
ATOM      7  C9  LG1 d5015      44.944  19.000  45.439  0.00  0.00     0.016 C 
ATOM      8  C10 LG1 d5015      43.156  19.356  47.282  0.00  0.00     0.011 C 
ATOM      9  C11 LG1 d5015      43.847  18.433  48.323  0.00  0.00     0.007 C 
ATOM     10  C12 LG1 d5015      43.413  16.952  48.174  0.00  0.00     0.002 C 
ATOM     11  C13 LG1 d5015      44.110  16.035  49.246  0.00  0.00    -0.016 C 
ATOM     12  C14 LG1 d5015      43.633  14.542  49.019  0.00  0.00    -0.068 C 
ATOM     13  C15 LG1 d5015      43.223  13.748  49.991  0.00  0.00     0.053 C 
ATOM     14  C16 LG1 d5015      43.295  14.150  51.387  0.00  0.00     0.149 C 
ATOM     15  C17 LG1 d5015      43.944  15.478  51.768  0.00  0.00     0.084 C 
ATOM     16  C18 LG1 d5015      43.678  16.521  50.655  0.00  0.00     0.022 C 
ATOM     17  O2  LG1 d5015      42.896  13.387  52.285  0.00  0.00    -0.293 OA
ATOM     18  C19 LG1 d5015      43.620  14.013  47.589  0.00  0.00     0.035 C 
ATOM     19  C20 LG1 d5015      43.010  15.022  46.597  0.00  0.00     0.010 C 
ATOM     20  C21 LG1 d5015      45.680  16.025  49.105  0.00  0.00     0.020 C 
ENDROOT
BRANCH   4  21
ATOM     21  C7  LG1 d5015      42.983  20.905  44.254  0.00  0.00     0.128 C 
ATOM     22  O1  LG1 d5015      42.967  21.843  45.022  0.00  0.00    -0.298 OA
ATOM     23  C8  LG1 d5015      43.443  21.093  42.850  0.00  0.00     0.091 C 
ENDBRANCH   4  21
TORSDOF 1
ENDMDL
MODEL 5
REMARK VINA RESULT:    -7.631      1.852      7.067
REMARK INTER + INTRA:          -8.280
REMARK INTER:                  -8.077
REMARK INTRA:                  -0.204
REMARK UNBOUND:                -0.204
REMARK  1 active torsions:
REMARK  status: ('A' for Active; 'I' for Inactive)
REMARK    1  A    between atoms: C7_7  and  C4_4 
ROOT
ATOM      1  C1  LG1 d5015      43.666  17.246  46.330  0.00  0.00    -0.004 C 
ATOM      2  C2  LG1 d5015      44.745  16.378  46.987  0.00  0.00    -0.001 C 
ATOM      3  C3  LG1 d5015      45.605  17.164  48.046  0.00  0.00    -0.030 C 
ATOM      4  C4  LG1 d5015      46.501  15.981  48.543  0.00  0.00     0.063 C 
ATOM      5  C5  LG1 d5015      45.540  14.742  48.606  0.00  0.00     0.013 C 
ATOM      6  C6  LG1 d5015      44.281  15.108  47.739  0.00  0.00     0.006 C 
ATOM      7  C9  LG1 d5015      44.760  17.725  49.243  0.00  0.00     0.016 C 
ATOM      8  C10 LG1 d5015      46.333  18.276  47.258  0.00  0.00     0.011 C 
ATOM      9  C11 LG1 d5015      45.321  19.206  46.534  0.00  0.00     0.007 C 
ATOM     10  C12 LG1 d5015      44.380  18.421  45.583  0.00  0.00     0.002 C 
ATOM     11  C13 LG1 d5015      43.373  19.380  44.847  0.00  0.00    -0.016 C 
ATOM     12  C14 LG1 d5015      42.438  18.509  43.913  0.00  0.00    -0.068 C 
ATOM     13  C15 LG1 d5015      42.171  18.811  42.656  0.00  0.00     0.053 C 
ATOM     14  C16 LG1 d5015      42.625  20.057  42.058  0.00  0.00     0.149 C 
ATOM     15  C17 LG1 d5015      43.345  21.097  42.911  0.00  0.00     0.084 C 
ATOM     16  C18 LG1 d5015      44.193  20.381  43.991  0.00  0.00     0.022 C 
ATOM     17  O2  LG1 d5015      42.366  20.317  40.869  0.00  0.00    -0.293 OA
ATOM     18  C19 LG1 d5015      41.844  17.232  44.499  0.00  0.00     0.035 C 
ATOM     19  C20 LG1 d5015      42.883  16.410  45.286  0.00  0.00     0.010 C 
ATOM     20  C21 LG1 d5015      42.417  20.138  45.847  0.00  0.00     0.020 C 
ENDROOT
BRANCH   4  21
ATOM     21  C7  LG1 d5015      47.287  16.263  49.834  0.00  0.00     0.128 C 
ATOM     22  O1  LG1 d5015      48.180  17.083  49.838  0.00  0.00    -0.298 OA
ATOM     23  C8  LG1 d5015      46.939  15.526  51.081  0.00  0.00     0.091 C 
ENDBRANCH   4  21
TORSDOF 1
ENDMDL
