MODEL 1
REMARK VINA RESULT:    -9.154      0.000      0.000
REMARK INTER + INTRA:          -9.893
REMARK INTER:                  -9.703
REMARK INTRA:                  -0.190
REMARK UNBOUND:                -0.204
REMARK  1 active torsions:
REMARK  status: ('A' for Active; 'I' for Inactive)
REMARK    1  A    between atoms: C7_7  and  C4_4 
ROOT
ATOM      1  C1  LG1 d5015      43.024  17.804  44.683  0.00  0.00    -0.004 C 
ATOM      2  C2  LG1 d5015      42.171  18.690  43.769  0.00  0.00    -0.001 C 
ATOM      3  C3  LG1 d5015      43.015  19.779  43.007  0.00  0.00    -0.030 C 
ATOM      4  C4  LG1 d5015      41.868  20.403  42.145  0.00  0.00     0.063 C 
ATOM      5  C5  LG1 d5015      40.985  19.185  41.701  0.00  0.00     0.013 C 
ATOM      6  C6  LG1 d5015      41.354  17.992  42.655  0.00  0.00     0.006 C 
ATOM      7  C9  LG1 d5015      44.112  19.169  42.064  0.00  0.00     0.016 C 
ATOM      8  C10 LG1 d5015      43.612  20.693  44.100  0.00  0.00     0.011 C 
ATOM      9  C11 LG1 d5015      44.485  19.881  45.097  0.00  0.00     0.007 C 
ATOM     10  C12 LG1 d5015      43.694  18.722  45.758  0.00  0.00     0.002 C 
ATOM     11  C13 LG1 d5015      44.588  17.921  46.776  0.00  0.00    -0.016 C 
ATOM     12  C14 LG1 d5015      43.723  16.749  47.393  0.00  0.00    -0.068 C 
ATOM     13  C15 LG1 d5015      43.670  16.478  48.685  0.00  0.00     0.053 C 
ATOM     14  C16 LG1 d5015      44.516  17.171  49.645  0.00  0.00     0.149 C 
ATOM     15  C17 LG1 d5015      45.563  18.169  49.161  0.00  0.00     0.084 C 
ATOM     16  C18 LG1 d5015      45.039  18.895  47.897  0.00  0.00     0.022 C 
ATOM     17  O2  LG1 d5015      44.444  16.902  50.857  0.00  0.00    -0.293 OA
ATOM     18  C19 LG1 d5015      42.880  15.913  46.437  0.00  0.00     0.035 C 
ATOM     19  C20 LG1 d5015      42.119  16.780  45.415  0.00  0.00     0.010 C 
ATOM     20  C21 LG1 d5015      45.830  17.238  46.084  0.00  0.00     0.020 C 
ENDROOT
BRANCH   4  21
ATOM     21  C7  LG1 d5015      42.341  21.317  41.002  0.00  0.00     0.128 C 
ATOM     22  O1  LG1 d5015      42.798  22.413  41.247  0.00  0.00    -0.298 OA
ATOM     23  C8  LG1 d5015      42.241  20.842  39.594  0.00  0.00     0.091 C 
ENDBRANCH   4  21
TORSDOF 1
ENDMDL
MODEL 2
REMARK VINA RESULT:    -8.600      1.440      6.890
REMARK INTER + INTRA:          -9.306
REMARK INTER:                  -9.102
REMARK INTRA:                  -0.204
REMARK UNBOUND:                -0.204
REMARK  1 active torsions:
REMARK  status: ('A' for Active; 'I' for Inactive)
REMARK    1  A    between atoms: C7_7  and  C4_4 
ROOT
ATOM      1  C1  LG1 d5015      42.686  17.993  44.730  0.00  0.00    -0.004 C 
ATOM      2  C2  LG1 d5015      43.330  16.807  45.456  0.00  0.00    -0.001 C 
ATOM      3  C3  LG1 d5015      44.247  17.247  46.658  0.00  0.00    -0.030 C 
ATOM      4  C4  LG1 d5015      44.639  15.827  47.185  0.00  0.00     0.063 C 
ATOM      5  C5  LG1 d5015      43.331  14.970  47.054  0.00  0.00     0.013 C 
ATOM      6  C6  LG1 d5015      42.385  15.744  46.066  0.00  0.00     0.006 C 
ATOM      7  C9  LG1 d5015      43.473  18.031  47.777  0.00  0.00     0.016 C 
ATOM      8  C10 LG1 d5015      45.392  18.076  46.035  0.00  0.00     0.011 C 
ATOM      9  C11 LG1 d5015      44.840  19.300  45.254  0.00  0.00     0.007 C 
ATOM     10  C12 LG1 d5015      43.834  18.885  44.149  0.00  0.00     0.002 C 
ATOM     11  C13 LG1 d5015      43.297  20.135  43.358  0.00  0.00    -0.016 C 
ATOM     12  C14 LG1 d5015      42.266  19.635  42.266  0.00  0.00    -0.068 C 
ATOM     13  C15 LG1 d5015      42.283  20.033  41.006  0.00  0.00     0.053 C 
ATOM     14  C16 LG1 d5015      43.189  21.074  40.546  0.00  0.00     0.149 C 
ATOM     15  C17 LG1 d5015      44.084  21.804  41.544  0.00  0.00     0.084 C 
ATOM     16  C18 LG1 d5015      44.503  20.829  42.671  0.00  0.00     0.022 C 
ATOM     17  O2  LG1 d5015      43.190  21.427  39.354  0.00  0.00    -0.293 OA
ATOM     18  C19 LG1 d5015      41.220  18.612  42.695  0.00  0.00     0.035 C 
ATOM     19  C20 LG1 d5015      41.824  17.480  43.548  0.00  0.00     0.010 C 
ATOM     20  C21 LG1 d5015      42.511  21.143  44.281  0.00  0.00     0.020 C 
ENDROOT
BRANCH   4  21
ATOM     21  C7  LG1 d5015      45.292  15.811  48.577  0.00  0.00     0.128 C 
ATOM     22  O1  LG1 d5015      46.379  16.322  48.746  0.00  0.00    -0.298 OA
ATOM     23  C8  LG1 d5015      44.578  15.170  49.716  0.00  0.00     0.091 C 
ENDBRANCH   4  21
TORSDOF 1
ENDMDL
MODEL 3
REMARK VINA RESULT:    -8.060      1.688      2.619
REMARK INTER + INTRA:          -8.735
REMARK INTER:                  -8.684
REMARK INTRA:                  -0.051
REMARK UNBOUND:                -0.204
REMARK  1 active torsions:
REMARK  status: ('A' for Active; 'I' for Inactive)
REMARK    1  A    between atoms: C7_7  and  C4_4 
ROOT
ATOM      1  C1  LG1 d5015      42.636  19.150  45.757  0.00  0.00    -0.004 C 
ATOM      2  C2  LG1 d5015      43.283  20.036  44.688  0.00  0.00    -0.001 C 
ATOM      3  C3  LG1 d5015      43.680  19.241  43.388  0.00  0.00    -0.030 C 
ATOM      4  C4  LG1 d5015      44.205  20.441  42.531  0.00  0.00     0.063 C 
ATOM      5  C5  LG1 d5015      43.221  21.623  42.841  0.00  0.00     0.013 C 
ATOM      6  C6  LG1 d5015      42.463  21.240  44.163  0.00  0.00     0.006 C 
ATOM      7  C9  LG1 d5015      42.455  18.574  42.668  0.00  0.00     0.016 C 
ATOM      8  C10 LG1 d5015      44.743  18.211  43.830  0.00  0.00     0.011 C 
ATOM      9  C11 LG1 d5015      44.188  17.270  44.935  0.00  0.00     0.007 C 
ATOM     10  C12 LG1 d5015      43.674  18.054  46.170  0.00  0.00     0.002 C 
ATOM     11  C13 LG1 d5015      43.130  17.085  47.284  0.00  0.00    -0.016 C 
ATOM     12  C14 LG1 d5015      42.609  17.956  48.499  0.00  0.00    -0.068 C 
ATOM     13  C15 LG1 d5015      42.908  17.707  49.761  0.00  0.00     0.053 C 
ATOM     14  C16 LG1 d5015      43.653  16.519  50.149  0.00  0.00     0.149 C 
ATOM     15  C17 LG1 d5015      44.025  15.474  49.101  0.00  0.00     0.084 C 
ATOM     16  C18 LG1 d5015      44.299  16.175  47.747  0.00  0.00     0.022 C 
ATOM     17  O2  LG1 d5015      43.929  16.311  51.344  0.00  0.00    -0.293 OA
ATOM     18  C19 LG1 d5015      41.739  19.167  48.180  0.00  0.00     0.035 C 
ATOM     19  C20 LG1 d5015      42.300  19.998  47.010  0.00  0.00     0.010 C 
ATOM     20  C21 LG1 d5015      41.901  16.227  46.794  0.00  0.00     0.020 C 
ENDROOT
BRANCH   4  21
ATOM     21  C7  LG1 d5015      44.403  20.131  41.038  0.00  0.00     0.128 C 
ATOM     22  O1  LG1 d5015      44.971  19.116  40.695  0.00  0.00    -0.298 OA
ATOM     23  C8  LG1 d5015      43.885  21.084  40.017  0.00  0.00     0.091 C 
ENDBRANCH   4  21
TORSDOF 1
ENDMDL
MODEL 4
REMARK VINA RESULT:    -7.846      2.018      3.259
REMARK INTER + INTRA:          -8.509
REMARK INTER:                  -8.303
REMARK INTRA:                  -0.206
REMARK UNBOUND:                -0.204
REMARK  1 active torsions:
REMARK  status: ('A' for Active; 'I' for Inactive)
REMARK    1  A    between atoms: C7_7  and  C4_4 
ROOT
ATOM      1  C1  LG1 d5015      43.625  16.427  46.719  0.00  0.00    -0.004 C 
ATOM      2  C2  LG1 d5015      42.895  17.405  45.793  0.00  0.00    -0.001 C 
ATOM      3  C3  LG1 d5015      43.445  18.876  45.896  0.00  0.00    -0.030 C 
ATOM      4  C4  LG1 d5015      42.554  19.537  44.792  0.00  0.00     0.063 C 
ATOM      5  C5  LG1 d5015      42.472  18.470  43.644  0.00  0.00     0.013 C 
ATOM      6  C6  LG1 d5015      42.907  17.098  44.276  0.00  0.00     0.006 C 
ATOM      7  C9  LG1 d5015      44.959  19.004  45.500  0.00  0.00     0.016 C 
ATOM      8  C10 LG1 d5015      43.170  19.331  47.346  0.00  0.00     0.011 C 
ATOM      9  C11 LG1 d5015      43.856  18.386  48.371  0.00  0.00     0.007 C 
ATOM     10  C12 LG1 d5015      43.417  16.909  48.193  0.00  0.00     0.002 C 
ATOM     11  C13 LG1 d5015      44.109  15.969  49.248  0.00  0.00    -0.016 C 
ATOM     12  C14 LG1 d5015      43.627  14.484  48.992  0.00  0.00    -0.068 C 
ATOM     13  C15 LG1 d5015      43.213  13.672  49.948  0.00  0.00     0.053 C 
ATOM     14  C16 LG1 d5015      43.285  14.048  51.352  0.00  0.00     0.149 C 
ATOM     15  C17 LG1 d5015      43.938  15.365  51.759  0.00  0.00     0.084 C 
ATOM     16  C18 LG1 d5015      43.676  16.430  50.666  0.00  0.00     0.022 C 
ATOM     17  O2  LG1 d5015      42.882  13.269  52.234  0.00  0.00    -0.293 OA
ATOM     18  C19 LG1 d5015      43.615  13.982  47.552  0.00  0.00     0.035 C 
ATOM     19  C20 LG1 d5015      43.010  15.012  46.579  0.00  0.00     0.010 C 
ATOM     20  C21 LG1 d5015      45.680  15.957  49.110  0.00  0.00     0.020 C 
ENDROOT
BRANCH   4  21
ATOM     21  C7  LG1 d5015      43.007  20.938  44.348  0.00  0.00     0.128 C 
ATOM     22  O1  LG1 d5015      42.953  21.870  45.123  0.00  0.00    -0.298 OA
ATOM     23  C8  LG1 d5015      43.518  21.140  42.964  0.00  0.00     0.091 C 
ENDBRANCH   4  21
TORSDOF 1
ENDMDL
MODEL 5
REMARK VINA RESULT:    -7.634      1.926      7.150
REMARK INTER + INTRA:          -8.284
REMARK INTER:                  -8.080
REMARK INTRA:                  -0.204
REMARK UNBOUND:                -0.204
REMARK  1 active torsions:
REMARK  status: ('A' for Active; 'I' for Inactive)
REMARK    1  A    between atoms: C7_7  and  C4_4 
ROOT
ATOM      1  C1  LG1 d5015      43.927  17.095  46.684  0.00  0.00    -0.004 C 
ATOM      2  C2  LG1 d5015      45.096  16.309  47.286  0.00  0.00    -0.001 C 
ATOM      3  C3  LG1 d5015      45.960  17.163  48.287  0.00  0.00    -0.030 C 
ATOM      4  C4  LG1 d5015      46.959  16.048  48.743  0.00  0.00     0.063 C 
ATOM      5  C5  LG1 d5015      46.088  14.750  48.873  0.00  0.00     0.013 C 
ATOM      6  C6  LG1 d5015      44.760  15.020  48.076  0.00  0.00     0.006 C 
ATOM      7  C9  LG1 d5015      45.148  17.683  49.525  0.00  0.00     0.016 C 
ATOM      8  C10 LG1 d5015      46.567  18.310  47.449  0.00  0.00     0.011 C 
ATOM      9  C11 LG1 d5015      45.456  19.162  46.775  0.00  0.00     0.007 C 
ATOM     10  C12 LG1 d5015      44.518  18.304  45.887  0.00  0.00     0.002 C 
ATOM     11  C13 LG1 d5015      43.409  19.185  45.200  0.00  0.00    -0.016 C 
ATOM     12  C14 LG1 d5015      42.483  18.242  44.329  0.00  0.00    -0.068 C 
ATOM     13  C15 LG1 d5015      42.127  18.510  43.086  0.00  0.00     0.053 C 
ATOM     14  C16 LG1 d5015      42.462  19.775  42.452  0.00  0.00     0.149 C 
ATOM     15  C17 LG1 d5015      43.158  20.871  43.252  0.00  0.00     0.084 C 
ATOM     16  C18 LG1 d5015      44.112  20.227  44.289  0.00  0.00     0.022 C 
ATOM     17  O2  LG1 d5015      42.121  20.001  41.277  0.00  0.00    -0.293 OA
ATOM     18  C19 LG1 d5015      42.009  16.937  44.960  0.00  0.00     0.035 C 
ATOM     19  C20 LG1 d5015      43.143  16.196  45.694  0.00  0.00     0.010 C 
ATOM     20  C21 LG1 d5015      42.463  19.892  46.246  0.00  0.00     0.020 C 
ENDROOT
BRANCH   4  21
ATOM     21  C7  LG1 d5015      47.796  16.398  49.985  0.00  0.00     0.128 C 
ATOM     22  O1  LG1 d5015      48.624  17.283  49.933  0.00  0.00    -0.298 OA
ATOM     23  C8  LG1 d5015      47.577  15.648  51.253  0.00  0.00     0.091 C 
ENDBRANCH   4  21
TORSDOF 1
ENDMDL
