REMARK INTER + INTRA:          -8.310
REMARK INTER:                  -8.157
REMARK INTRA:                  -0.153
REMARK UNBOUND:                -0.153
REMARK  1 active torsions:
REMARK  status: ('A' for Active; 'I' for Inactive)
REMARK    1  A    between atoms: C7_7  and  C4_4 
ROOT
ATOM      1  C1  LG1 d5015      43.216  17.460  47.877  0.00  0.00    -0.004 C 
ATOM      2  C2  LG1 d5015      43.328  18.802  47.145  0.00  0.00    -0.001 C 
ATOM      3  C3  LG1 d5015      43.782  18.648  45.646  0.00  0.00    -0.030 C 
ATOM      4  C4  LG1 d5015      43.701  20.152  45.222  0.00  0.00     0.063 C 
ATOM      5  C5  LG1 d5015      42.416  20.706  45.931  0.00  0.00     0.013 C 
ATOM      6  C6  LG1 d5015      42.059  19.684  47.071  0.00  0.00     0.006 C 
ATOM      7  C9  LG1 d5015      42.787  17.800  44.778  0.00  0.00     0.016 C 
ATOM      8  C10 LG1 d5015      45.200  18.036  45.693  0.00  0.00     0.011 C 
ATOM      9  C11 LG1 d5015      45.198  16.671  46.438  0.00  0.00     0.007 C 
ATOM     10  C12 LG1 d5015      44.630  16.789  47.876  0.00  0.00     0.002 C 
ATOM     11  C13 LG1 d5015      44.650  15.403  48.620  0.00  0.00    -0.016 C 
ATOM     12  C14 LG1 d5015      44.041  15.599  50.068  0.00  0.00    -0.068 C 
ATOM     13  C15 LG1 d5015      44.599  15.126  51.168  0.00  0.00     0.053 C 
ATOM     14  C16 LG1 d5015      45.773  14.268  51.120  0.00  0.00     0.149 C 
ATOM     15  C17 LG1 d5015      46.333  13.812  49.776  0.00  0.00     0.084 C 
ATOM     16  C18 LG1 d5015      46.125  14.929  48.724  0.00  0.00     0.022 C 
ATOM     17  O2  LG1 d5015      46.284  13.841  52.171  0.00  0.00    -0.293 OA
ATOM     18  C19 LG1 d5015      42.755  16.408  50.191  0.00  0.00     0.035 C 
ATOM     19  C20 LG1 d5015      42.792  17.698  49.349  0.00  0.00     0.010 C 
ATOM     20  C21 LG1 d5015      43.755  14.319  47.905  0.00  0.00     0.020 C 
ENDROOT
BRANCH   4  21
ATOM     21  C7  LG1 d5015      43.767  20.401  43.706  0.00  0.00     0.128 C 
ATOM     22  O1  LG1 d5015      44.703  19.980  43.059  0.00  0.00    -0.298 OA
ATOM     23  C8  LG1 d5015      42.671  21.156  43.038  0.00  0.00     0.091 C 
ENDBRANCH   4  21
TORSDOF 1
ENDMDL
