REMARK INTER + INTRA:          -7.239
REMARK INTER:                  -7.119
REMARK INTRA:                  -0.120
REMARK UNBOUND:                -0.120
REMARK  1 active torsions:
REMARK  status: ('A' for Active; 'I' for Inactive)
REMARK    1  A    between atoms: C10_13  and  C11_14 
ROOT
ATOM      1  C1  LG1 d5015      43.805  18.830  46.641  0.00  0.00     0.018 C 
ATOM      2  C2  LG1 d5015      42.975  19.776  45.854  0.00  0.00     0.193 C 
ATOM      3  C3  LG1 d5015      43.292  19.814  44.410  0.00  0.00     0.049 A 
ATOM      4  C4  LG1 d5015      42.661  20.741  43.579  0.00  0.00     0.037 A 
ATOM      5  C5  LG1 d5015      42.921  20.730  42.208  0.00  0.00     0.012 A 
ATOM      6  C6  LG1 d5015      43.800  19.790  41.666  0.00  0.00     0.022 A 
ATOM      7  C7  LG1 d5015      44.427  18.861  42.498  0.00  0.00     0.039 A 
ATOM      8  C8  LG1 d5015      44.188  18.882  43.872  0.00  0.00     0.083 A 
ATOM      9  O1  LG1 d5015      44.823  17.931  44.626  0.00  0.00    -0.346 OA
ATOM     10  C9  LG1 d5015      45.053  18.345  45.977  0.00  0.00     0.218 C 
ATOM     11 BR1  LG1 d5015      42.094  22.003  41.080  0.00  0.00    -0.051 Br
ATOM     12  O2  LG1 d5015      42.098  20.476  46.340  0.00  0.00    -0.287 OA
ATOM     13  C10 LG1 d5015      43.410  18.475  47.870  0.00  0.00     0.025 C 
ENDROOT
BRANCH  13  14
ATOM     14  C11 LG1 d5015      44.123  17.573  48.723  0.00  0.00    -0.029 A 
ATOM     15  C14 LG1 d5015      45.205  17.959  49.483  0.00  0.00     0.061 A 
ATOM     16  S1  LG1 d5015      45.842  16.661  50.398  0.00  0.00    -0.113 SA
ATOM     17  C13 LG1 d5015      44.673  15.577  49.779  0.00  0.00     0.050 A 
ATOM     18  C12 LG1 d5015      43.815  16.192  48.895  0.00  0.00     0.019 A 
ENDBRANCH  13  14
TORSDOF 1
ENDMDL
