REMARK INTER + INTRA:          -8.130
REMARK INTER:                  -7.962
REMARK INTRA:                  -0.169
REMARK UNBOUND:                -0.084
REMARK  1 active torsions:
REMARK  status: ('A' for Active; 'I' for Inactive)
REMARK    1  A    between atoms: C10_13  and  C11_14 
ROOT
ATOM      1  C1  LG1 d5015      44.047  19.330  45.028  0.00  0.00     0.018 C 
ATOM      2  C2  LG1 d5015      44.672  18.344  45.944  0.00  0.00     0.193 C 
ATOM      3  C3  LG1 d5015      43.976  18.183  47.238  0.00  0.00     0.049 A 
ATOM      4  C4  LG1 d5015      44.524  17.370  48.232  0.00  0.00     0.037 A 
ATOM      5  C5  LG1 d5015      43.831  17.175  49.427  0.00  0.00     0.012 A 
ATOM      6  C6  LG1 d5015      42.590  17.782  49.627  0.00  0.00     0.022 A 
ATOM      7  C7  LG1 d5015      42.041  18.591  48.631  0.00  0.00     0.039 A 
ATOM      8  C8  LG1 d5015      42.740  18.807  47.443  0.00  0.00     0.083 A 
ATOM      9  O1  LG1 d5015      42.135  19.598  46.503  0.00  0.00    -0.346 OA
ATOM     10  C9  LG1 d5015      43.066  20.271  45.649  0.00  0.00     0.218 C 
ATOM     11 BR1  LG1 d5015      44.582  16.100  50.790  0.00  0.00    -0.051 Br
ATOM     12  O2  LG1 d5015      45.680  17.708  45.671  0.00  0.00    -0.287 OA
ATOM     13  C10 LG1 d5015      44.386  19.332  43.733  0.00  0.00     0.025 C 
ENDROOT
BRANCH  13  14
ATOM     14  C11 LG1 d5015      43.853  20.231  42.755  0.00  0.00    -0.029 A 
ATOM     15  C14 LG1 d5015      42.730  19.946  42.012  0.00  0.00     0.061 A 
ATOM     16  S1  LG1 d5015      42.337  21.213  40.929  0.00  0.00    -0.113 SA
ATOM     17  C13 LG1 d5015      43.672  22.147  41.452  0.00  0.00     0.050 A 
ATOM     18  C12 LG1 d5015      44.399  21.506  42.431  0.00  0.00     0.019 A 
ENDBRANCH  13  14
TORSDOF 1
ENDMDL
