REMARK INTER + INTRA:          -6.062
REMARK INTER:                  -5.988
REMARK INTRA:                  -0.074
REMARK UNBOUND:                -0.074
REMARK  1 active torsions:
REMARK  status: ('A' for Active; 'I' for Inactive)
REMARK    1  A    between atoms: C1_1  and  N1_10 
ROOT
ATOM      1  C1  LG1 d5015      44.132  18.016  47.321  0.00  0.00     0.056 A 
ATOM      2  C2  LG1 d5015      43.029  18.854  47.479  0.00  0.00    -0.033 A 
ATOM      3  C3  LG1 d5015      42.766  19.846  46.535  0.00  0.00     0.028 A 
ATOM      4  C4  LG1 d5015      43.606  20.001  45.432  0.00  0.00     0.012 A 
ATOM      5  C5  LG1 d5015      44.711  19.162  45.274  0.00  0.00     0.028 A 
ATOM      6  C6  LG1 d5015      44.973  18.171  46.218  0.00  0.00    -0.033 A 
ATOM      7  C7  LG1 d5015      46.163  17.288  46.022  0.00  0.00     0.050 C 
ATOM      8 BR1  LG1 d5015      43.250  21.347  44.154  0.00  0.00    -0.051 Br
ATOM      9  C8  LG1 d5015      42.110  18.712  48.649  0.00  0.00     0.050 C 
ENDROOT
BRANCH   1  10
ATOM     10  N1  LG1 d5015      44.402  16.993  48.291  0.00  0.00    -0.265 N 
ATOM     11  C11 LG1 d5015      45.364  17.103  49.296  0.00  0.00     0.148 C 
ATOM     12  S2  LG1 d5015      46.255  18.428  49.804  0.00  0.00    -0.052 SA
ATOM     13  S1  LG1 d5015      45.498  15.568  50.147  0.00  0.00    -0.090 SA
ATOM     14  C10 LG1 d5015      44.050  14.864  49.359  0.00  0.00     0.185 C 
ATOM     15  C9  LG1 d5015      43.680  15.793  48.238  0.00  0.00     0.239 C 
ATOM     16  O1  LG1 d5015      42.845  15.460  47.400  0.00  0.00    -0.272 OA
ENDBRANCH   1  10
TORSDOF 1
ENDMDL
