REMARK INTER + INTRA:          -7.177
REMARK INTER:                  -7.024
REMARK INTRA:                  -0.153
REMARK UNBOUND:                -0.153
REMARK  1 active torsions:
REMARK  status: ('A' for Active; 'I' for Inactive)
REMARK    1  A    between atoms: C10_13  and  C11_14 
ROOT
ATOM      1  C1  LG1 d5015      43.656  17.962  44.665  0.00  0.00     0.018 C 
ATOM      2  C2  LG1 d5015      43.264  16.863  45.582  0.00  0.00     0.193 C 
ATOM      3  C3  LG1 d5015      43.777  17.005  46.961  0.00  0.00     0.049 A 
ATOM      4  C4  LG1 d5015      43.574  15.984  47.892  0.00  0.00     0.037 A 
ATOM      5  C5  LG1 d5015      44.009  16.151  49.207  0.00  0.00     0.012 A 
ATOM      6  C6  LG1 d5015      44.635  17.336  49.596  0.00  0.00     0.022 A 
ATOM      7  C7  LG1 d5015      44.834  18.357  48.666  0.00  0.00     0.039 A 
ATOM      8  C8  LG1 d5015      44.422  18.187  47.344  0.00  0.00     0.083 A 
ATOM      9  O1  LG1 d5015      44.633  19.236  46.488  0.00  0.00    -0.346 OA
ATOM     10  C9  LG1 d5015      44.783  18.829  45.124  0.00  0.00     0.218 C 
ATOM     11 BR1  LG1 d5015      43.765  14.760  50.465  0.00  0.00    -0.051 Br
ATOM     12  O2  LG1 d5015      42.575  15.911  45.245  0.00  0.00    -0.287 OA
ATOM     13  C10 LG1 d5015      43.005  18.114  43.505  0.00  0.00     0.025 C 
ENDROOT
BRANCH  13  14
ATOM     14  C11 LG1 d5015      43.290  19.134  42.541  0.00  0.00    -0.029 A 
ATOM     15  C14 LG1 d5015      42.579  20.309  42.464  0.00  0.00     0.061 A 
ATOM     16  S1  LG1 d5015      43.154  21.328  41.213  0.00  0.00    -0.113 SA
ATOM     17  C13 LG1 d5015      44.359  20.196  40.771  0.00  0.00     0.050 A 
ATOM     18  C12 LG1 d5015      44.322  19.068  41.560  0.00  0.00     0.019 A 
ENDBRANCH  13  14
TORSDOF 1
ENDMDL
