REMARK INTER + INTRA:          -6.261
REMARK INTER:                  -6.056
REMARK INTRA:                  -0.205
REMARK UNBOUND:                -0.132
REMARK  1 active torsions:
REMARK  status: ('A' for Active; 'I' for Inactive)
REMARK    1  A    between atoms: C1_1  and  N1_10 
ROOT
ATOM      1  C1  LG1 d5015      43.995  17.396  46.955  0.00  0.00     0.056 A 
ATOM      2  C2  LG1 d5015      43.188  16.738  46.027  0.00  0.00    -0.033 A 
ATOM      3  C3  LG1 d5015      42.996  17.287  44.759  0.00  0.00     0.028 A 
ATOM      4  C4  LG1 d5015      43.610  18.491  44.419  0.00  0.00     0.012 A 
ATOM      5  C5  LG1 d5015      44.417  19.150  45.349  0.00  0.00     0.028 A 
ATOM      6  C6  LG1 d5015      44.609  18.601  46.615  0.00  0.00    -0.033 A 
ATOM      7  C7  LG1 d5015      45.479  19.329  47.589  0.00  0.00     0.050 C 
ATOM      8 BR1  LG1 d5015      43.347  19.235  42.701  0.00  0.00    -0.051 Br
ATOM      9  C8  LG1 d5015      42.518  15.445  46.361  0.00  0.00     0.050 C 
ENDROOT
BRANCH   1  10
ATOM     10  N1  LG1 d5015      44.195  16.831  48.260  0.00  0.00    -0.265 N 
ATOM     11  C11 LG1 d5015      45.201  15.917  48.572  0.00  0.00     0.148 C 
ATOM     12  S2  LG1 d5015      46.529  15.421  47.678  0.00  0.00    -0.052 SA
ATOM     13  S1  LG1 d5015      44.981  15.344  50.221  0.00  0.00    -0.090 SA
ATOM     14  C10 LG1 d5015      43.714  16.554  50.603  0.00  0.00     0.185 C 
ATOM     15  C9  LG1 d5015      43.326  17.191  49.300  0.00  0.00     0.239 C 
ATOM     16  O1  LG1 d5015      42.337  17.917  49.229  0.00  0.00    -0.272 OA
ENDBRANCH   1  10
TORSDOF 1
ENDMDL
