REMARK INTER + INTRA:          -8.387
REMARK INTER:                  -8.253
REMARK INTRA:                  -0.134
REMARK UNBOUND:                -0.120
REMARK  1 active torsions:
REMARK  status: ('A' for Active; 'I' for Inactive)
REMARK    1  A    between atoms: C10_13  and  C11_14 
ROOT
ATOM      1  C1  LG1 d5015      42.828  19.683  43.961  0.00  0.00     0.018 C 
ATOM      2  C2  LG1 d5015      42.903  19.756  45.442  0.00  0.00     0.193 C 
ATOM      3  C3  LG1 d5015      42.843  18.445  46.123  0.00  0.00     0.049 A 
ATOM      4  C4  LG1 d5015      42.791  18.382  47.517  0.00  0.00     0.037 A 
ATOM      5  C5  LG1 d5015      42.796  17.139  48.153  0.00  0.00     0.012 A 
ATOM      6  C6  LG1 d5015      42.862  15.965  47.403  0.00  0.00     0.022 A 
ATOM      7  C7  LG1 d5015      42.918  16.029  46.009  0.00  0.00     0.039 A 
ATOM      8  C8  LG1 d5015      42.892  17.267  45.367  0.00  0.00     0.083 A 
ATOM      9  O1  LG1 d5015      42.966  17.258  43.999  0.00  0.00    -0.346 OA
ATOM     10  C9  LG1 d5015      42.337  18.392  43.393  0.00  0.00     0.218 C 
ATOM     11 BR1  LG1 d5015      42.694  17.046  50.039  0.00  0.00    -0.051 Br
ATOM     12  O2  LG1 d5015      43.004  20.802  46.066  0.00  0.00    -0.287 OA
ATOM     13  C10 LG1 d5015      43.188  20.747  43.233  0.00  0.00     0.025 C 
ENDROOT
BRANCH  13  14
ATOM     14  C11 LG1 d5015      43.160  20.798  41.802  0.00  0.00    -0.029 A 
ATOM     15  C14 LG1 d5015      44.285  20.633  41.026  0.00  0.00     0.061 A 
ATOM     16  S1  LG1 d5015      43.935  20.745  39.354  0.00  0.00    -0.113 SA
ATOM     17  C13 LG1 d5015      42.274  21.015  39.664  0.00  0.00     0.050 A 
ATOM     18  C12 LG1 d5015      41.994  21.019  41.012  0.00  0.00     0.019 A 
ENDBRANCH  13  14
TORSDOF 1
ENDMDL
