REMARK INTER + INTRA:          -7.580
REMARK INTER:                  -7.416
REMARK INTRA:                  -0.164
REMARK UNBOUND:                -0.153
REMARK  1 active torsions:
REMARK  status: ('A' for Active; 'I' for Inactive)
REMARK    1  A    between atoms: C10_13  and  C11_14 
ROOT
ATOM      1  C1  LG1 d5015      43.194  18.035  45.379  0.00  0.00     0.018 C 
ATOM      2  C2  LG1 d5015      42.936  18.008  43.917  0.00  0.00     0.193 C 
ATOM      3  C3  LG1 d5015      43.121  19.308  43.239  0.00  0.00     0.049 A 
ATOM      4  C4  LG1 d5015      42.802  19.444  41.886  0.00  0.00     0.037 A 
ATOM      5  C5  LG1 d5015      43.036  20.658  41.239  0.00  0.00     0.012 A 
ATOM      6  C6  LG1 d5015      43.595  21.730  41.935  0.00  0.00     0.022 A 
ATOM      7  C7  LG1 d5015      43.917  21.592  43.287  0.00  0.00     0.039 A 
ATOM      8  C8  LG1 d5015      43.665  20.388  43.944  0.00  0.00     0.083 A 
ATOM      9  O1  LG1 d5015      44.021  20.316  45.265  0.00  0.00    -0.346 OA
ATOM     10  C9  LG1 d5015      43.229  19.387  46.013  0.00  0.00     0.218 C 
ATOM     11 BR1  LG1 d5015      42.578  20.858  39.415  0.00  0.00    -0.051 Br
ATOM     12  O2  LG1 d5015      42.597  17.005  43.307  0.00  0.00    -0.287 OA
ATOM     13  C10 LG1 d5015      43.371  16.882  46.036  0.00  0.00     0.025 C 
ENDROOT
BRANCH  13  14
ATOM     14  C11 LG1 d5015      43.627  16.780  47.441  0.00  0.00    -0.029 A 
ATOM     15  C14 LG1 d5015      44.897  16.735  47.968  0.00  0.00     0.061 A 
ATOM     16  S1  LG1 d5015      44.881  16.613  49.676  0.00  0.00    -0.113 SA
ATOM     17  C13 LG1 d5015      43.170  16.621  49.715  0.00  0.00     0.050 A 
ATOM     18  C12 LG1 d5015      42.625  16.715  48.453  0.00  0.00     0.019 A 
ENDBRANCH  13  14
TORSDOF 1
ENDMDL
