REMARK INTER + INTRA:          -7.404
REMARK INTER:                  -7.276
REMARK INTRA:                  -0.128
REMARK UNBOUND:                -0.084
REMARK  1 active torsions:
REMARK  status: ('A' for Active; 'I' for Inactive)
REMARK    1  A    between atoms: C10_13  and  C11_14 
ROOT
ATOM      1  C1  LG1 d5015      43.928  18.997  46.614  0.00  0.00     0.018 C 
ATOM      2  C2  LG1 d5015      43.073  19.922  45.828  0.00  0.00     0.193 C 
ATOM      3  C3  LG1 d5015      43.354  19.931  44.377  0.00  0.00     0.049 A 
ATOM      4  C4  LG1 d5015      42.697  20.838  43.543  0.00  0.00     0.037 A 
ATOM      5  C5  LG1 d5015      42.923  20.800  42.166  0.00  0.00     0.012 A 
ATOM      6  C6  LG1 d5015      43.793  19.854  41.622  0.00  0.00     0.022 A 
ATOM      7  C7  LG1 d5015      44.446  18.945  42.456  0.00  0.00     0.039 A 
ATOM      8  C8  LG1 d5015      44.241  18.993  43.835  0.00  0.00     0.083 A 
ATOM      9  O1  LG1 d5015      44.900  18.061  44.593  0.00  0.00    -0.346 OA
ATOM     10  C9  LG1 d5015      45.162  18.504  45.929  0.00  0.00     0.218 C 
ATOM     11 BR1  LG1 d5015      42.061  22.046  41.034  0.00  0.00    -0.051 Br
ATOM     12  O2  LG1 d5015      42.205  20.626  46.322  0.00  0.00    -0.287 OA
ATOM     13  C10 LG1 d5015      43.566  18.664  47.859  0.00  0.00     0.025 C 
ENDROOT
BRANCH  13  14
ATOM     14  C11 LG1 d5015      44.305  17.784  48.712  0.00  0.00    -0.029 A 
ATOM     15  C14 LG1 d5015      43.953  16.468  48.913  0.00  0.00     0.061 A 
ATOM     16  S1  LG1 d5015      45.028  15.672  49.981  0.00  0.00    -0.113 SA
ATOM     17  C13 LG1 d5015      45.969  17.087  50.179  0.00  0.00     0.050 A 
ATOM     18  C12 LG1 d5015      45.474  18.143  49.445  0.00  0.00     0.019 A 
ENDBRANCH  13  14
TORSDOF 1
ENDMDL
