REMARK INTER + INTRA:          -7.598
REMARK INTER:                  -7.439
REMARK INTRA:                  -0.159
REMARK UNBOUND:                -0.168
REMARK  1 active torsions:
REMARK  status: ('A' for Active; 'I' for Inactive)
REMARK    1  A    between atoms: C10_13  and  C11_14 
ROOT
ATOM      1  C1  LG1 d5015      43.176  18.145  45.364  0.00  0.00     0.018 C 
ATOM      2  C2  LG1 d5015      42.964  18.069  43.897  0.00  0.00     0.193 C 
ATOM      3  C3  LG1 d5015      43.230  19.330  43.173  0.00  0.00     0.049 A 
ATOM      4  C4  LG1 d5015      42.961  19.422  41.806  0.00  0.00     0.037 A 
ATOM      5  C5  LG1 d5015      43.272  20.596  41.118  0.00  0.00     0.012 A 
ATOM      6  C6  LG1 d5015      43.859  21.670  41.789  0.00  0.00     0.022 A 
ATOM      7  C7  LG1 d5015      44.131  21.575  43.155  0.00  0.00     0.039 A 
ATOM      8  C8  LG1 d5015      43.802  20.412  43.852  0.00  0.00     0.083 A 
ATOM      9  O1  LG1 d5015      44.112  20.380  45.186  0.00  0.00    -0.346 OA
ATOM     10  C9  LG1 d5015      43.254  19.520  45.943  0.00  0.00     0.218 C 
ATOM     11 BR1  LG1 d5015      42.882  20.740  39.273  0.00  0.00    -0.051 Br
ATOM     12  O2  LG1 d5015      42.598  17.057  43.316  0.00  0.00    -0.287 OA
ATOM     13  C10 LG1 d5015      43.278  17.015  46.073  0.00  0.00     0.025 C 
ENDROOT
BRANCH  13  14
ATOM     14  C11 LG1 d5015      43.484  16.960  47.489  0.00  0.00    -0.029 A 
ATOM     15  C14 LG1 d5015      44.729  16.814  48.059  0.00  0.00     0.061 A 
ATOM     16  S1  LG1 d5015      44.653  16.784  49.769  0.00  0.00    -0.113 SA
ATOM     17  C13 LG1 d5015      42.951  16.966  49.752  0.00  0.00     0.050 A 
ATOM     18  C12 LG1 d5015      42.453  17.048  48.470  0.00  0.00     0.019 A 
ENDBRANCH  13  14
TORSDOF 1
ENDMDL
