REMARK INTER + INTRA:          -9.361
REMARK INTER:                  -8.807
REMARK INTRA:                  -0.553
REMARK UNBOUND:                -0.556
REMARK  2 active torsions:
REMARK  status: ('A' for Active; 'I' for Inactive)
REMARK    1  A    between atoms: C1_1  and  N1_15 
REMARK    2  A    between atoms: C7_9  and  C4_4 
ROOT
ATOM      1  C1  LG1 d5015      43.285  18.313  45.906  0.00  0.00     0.141 A 
ATOM      2  C2  LG1 d5015      42.886  17.536  44.819  0.00  0.00     0.187 A 
ATOM      3  C3  LG1 d5015      42.492  18.150  43.630  0.00  0.00     0.175 A 
ATOM      4  C4  LG1 d5015      42.496  19.541  43.529  0.00  0.00     0.131 A 
ATOM      5  C5  LG1 d5015      42.894  20.318  44.616  0.00  0.00     0.175 A 
ATOM      6  C6  LG1 d5015      43.288  19.704  45.805  0.00  0.00     0.187 A 
ATOM      7  F1  LG1 d5015      43.668  20.464  46.842  0.00  0.00    -0.200 F 
ATOM      8  F2  LG1 d5015      42.900  21.657  44.528  0.00  0.00    -0.202 F 
ATOM      9  F6  LG1 d5015      42.112  17.393  42.590  0.00  0.00    -0.202 F 
ATOM     10  F7  LG1 d5015      42.878  16.197  44.902  0.00  0.00    -0.200 F 
ENDROOT
BRANCH   1  11
ATOM     11  N1  LG1 d5015      43.675  17.705  47.086  0.00  0.00    -0.232 N 
ATOM     12  N2  LG1 d5015      42.779  17.523  48.071  0.00  0.00    -0.172 NA
ATOM     13  C10 LG1 d5015      43.496  16.925  49.026  0.00  0.00     0.053 A 
ATOM     14  C9  LG1 d5015      44.839  16.727  48.654  0.00  0.00     0.055 A 
ATOM     15  C11 LG1 d5015      42.853  16.552  50.297  0.00  0.00     0.072 C 
ATOM     16  C8  LG1 d5015      44.923  17.246  47.385  0.00  0.00     0.035 A 
ATOM     17  C12 LG1 d5015      46.069  17.334  46.459  0.00  0.00     0.070 C 
ENDBRANCH   1  11
BRANCH   4  18
ATOM     18  C7  LG1 d5015      42.074  20.197  42.257  0.00  0.00     0.423 C 
ATOM     19  F4  LG1 d5015      42.827  19.834  41.178  0.00  0.00    -0.166 F 
ATOM     20  F3  LG1 d5015      42.142  21.561  42.297  0.00  0.00    -0.166 F 
ATOM     21  F5  LG1 d5015      40.784  19.905  41.919  0.00  0.00    -0.166 F 
ENDBRANCH   4  18
TORSDOF 2
ENDMDL
