REMARK INTER + INTRA:          -6.279
REMARK INTER:                  -6.071
REMARK INTRA:                  -0.208
REMARK UNBOUND:                -0.074
REMARK  1 active torsions:
REMARK  status: ('A' for Active; 'I' for Inactive)
REMARK    1  A    between atoms: C1_1  and  N1_10 
ROOT
ATOM      1  C1  LG1 d5015      44.014  17.390  46.933  0.00  0.00     0.056 A 
ATOM      2  C2  LG1 d5015      44.641  18.588  46.590  0.00  0.00    -0.033 A 
ATOM      3  C3  LG1 d5015      44.453  19.134  45.320  0.00  0.00     0.028 A 
ATOM      4  C4  LG1 d5015      43.639  18.483  44.394  0.00  0.00     0.012 A 
ATOM      5  C5  LG1 d5015      43.012  17.284  44.737  0.00  0.00     0.028 A 
ATOM      6  C6  LG1 d5015      43.200  16.739  46.006  0.00  0.00    -0.033 A 
ATOM      7  C7  LG1 d5015      42.516  15.454  46.345  0.00  0.00     0.050 C 
ATOM      8 BR1  LG1 d5015      43.386  19.223  42.673  0.00  0.00    -0.051 Br
ATOM      9  C8  LG1 d5015      45.518  19.309  47.561  0.00  0.00     0.050 C 
ENDROOT
BRANCH   1  10
ATOM     10  N1  LG1 d5015      44.206  16.828  48.240  0.00  0.00    -0.265 N 
ATOM     11  C11 LG1 d5015      45.203  15.906  48.557  0.00  0.00     0.148 C 
ATOM     12  S2  LG1 d5015      46.527  15.391  47.666  0.00  0.00    -0.052 SA
ATOM     13  S1  LG1 d5015      44.974  15.340  50.208  0.00  0.00    -0.090 SA
ATOM     14  C10 LG1 d5015      43.720  16.565  50.584  0.00  0.00     0.185 C 
ATOM     15  C9  LG1 d5015      43.340  17.201  49.278  0.00  0.00     0.239 C 
ATOM     16  O1  LG1 d5015      42.359  17.938  49.204  0.00  0.00    -0.272 OA
ENDBRANCH   1  10
TORSDOF 1
ENDMDL
