REMARK INTER + INTRA:          -8.386
REMARK INTER:                  -8.245
REMARK INTRA:                  -0.141
REMARK UNBOUND:                -0.168
REMARK  1 active torsions:
REMARK  status: ('A' for Active; 'I' for Inactive)
REMARK    1  A    between atoms: C10_13  and  C11_14 
ROOT
ATOM      1  C1  LG1 d5015      42.803  19.667  43.973  0.00  0.00     0.018 C 
ATOM      2  C2  LG1 d5015      42.869  19.732  45.454  0.00  0.00     0.193 C 
ATOM      3  C3  LG1 d5015      42.828  18.416  46.127  0.00  0.00     0.049 A 
ATOM      4  C4  LG1 d5015      42.769  18.344  47.520  0.00  0.00     0.037 A 
ATOM      5  C5  LG1 d5015      42.792  17.098  48.149  0.00  0.00     0.012 A 
ATOM      6  C6  LG1 d5015      42.883  15.930  47.393  0.00  0.00     0.022 A 
ATOM      7  C7  LG1 d5015      42.946  16.003  46.000  0.00  0.00     0.039 A 
ATOM      8  C8  LG1 d5015      42.901  17.244  45.365  0.00  0.00     0.083 A 
ATOM      9  O1  LG1 d5015      42.984  17.244  43.997  0.00  0.00    -0.346 OA
ATOM     10  C9  LG1 d5015      42.339  18.370  43.394  0.00  0.00     0.218 C 
ATOM     11 BR1  LG1 d5015      42.682  16.992  50.035  0.00  0.00    -0.051 Br
ATOM     12  O2  LG1 d5015      42.948  20.776  46.084  0.00  0.00    -0.287 OA
ATOM     13  C10 LG1 d5015      43.148  20.741  43.252  0.00  0.00     0.025 C 
ENDROOT
BRANCH  13  14
ATOM     14  C11 LG1 d5015      43.128  20.800  41.821  0.00  0.00    -0.029 A 
ATOM     15  C14 LG1 d5015      44.257  20.638  41.050  0.00  0.00     0.061 A 
ATOM     16  S1  LG1 d5015      43.914  20.760  39.377  0.00  0.00    -0.113 SA
ATOM     17  C13 LG1 d5015      42.252  21.031  39.681  0.00  0.00     0.050 A 
ATOM     18  C12 LG1 d5015      41.966  21.027  41.028  0.00  0.00     0.019 A 
ENDBRANCH  13  14
TORSDOF 1
ENDMDL
