REMARK INTER + INTRA:          -7.410
REMARK INTER:                  -7.323
REMARK INTRA:                  -0.087
REMARK UNBOUND:                -0.153
REMARK  1 active torsions:
REMARK  status: ('A' for Active; 'I' for Inactive)
REMARK    1  A    between atoms: C10_13  and  C11_14 
ROOT
ATOM      1  C1  LG1 d5015      43.895  18.997  46.677  0.00  0.00     0.018 C 
ATOM      2  C2  LG1 d5015      43.046  19.922  45.885  0.00  0.00     0.193 C 
ATOM      3  C3  LG1 d5015      43.339  19.932  44.436  0.00  0.00     0.049 A 
ATOM      4  C4  LG1 d5015      42.689  20.839  43.597  0.00  0.00     0.037 A 
ATOM      5  C5  LG1 d5015      42.926  20.801  42.222  0.00  0.00     0.012 A 
ATOM      6  C6  LG1 d5015      43.799  19.855  41.685  0.00  0.00     0.022 A 
ATOM      7  C7  LG1 d5015      44.446  18.946  42.524  0.00  0.00     0.039 A 
ATOM      8  C8  LG1 d5015      44.230  18.994  43.901  0.00  0.00     0.083 A 
ATOM      9  O1  LG1 d5015      44.883  18.062  44.664  0.00  0.00    -0.346 OA
ATOM     10  C9  LG1 d5015      45.134  18.504  46.002  0.00  0.00     0.218 C 
ATOM     11 BR1  LG1 d5015      42.072  22.047  41.083  0.00  0.00    -0.051 Br
ATOM     12  O2  LG1 d5015      42.174  20.627  46.371  0.00  0.00    -0.287 OA
ATOM     13  C10 LG1 d5015      43.523  18.665  47.919  0.00  0.00     0.025 C 
ENDROOT
BRANCH  13  14
ATOM     14  C11 LG1 d5015      44.255  17.784  48.778  0.00  0.00    -0.029 A 
ATOM     15  C14 LG1 d5015      43.840  16.504  49.064  0.00  0.00     0.061 A 
ATOM     16  S1  LG1 d5015      44.922  15.697  50.118  0.00  0.00    -0.113 SA
ATOM     17  C13 LG1 d5015      45.952  17.062  50.193  0.00  0.00     0.050 A 
ATOM     18  C12 LG1 d5015      45.480  18.107  49.431  0.00  0.00     0.019 A 
ENDBRANCH  13  14
TORSDOF 1
ENDMDL
