REMARK INTER + INTRA:          -8.354
REMARK INTER:                  -8.213
REMARK INTRA:                  -0.141
REMARK UNBOUND:                -0.084
REMARK  1 active torsions:
REMARK  status: ('A' for Active; 'I' for Inactive)
REMARK    1  A    between atoms: C10_13  and  C11_14 
ROOT
ATOM      1  C1  LG1 d5015      42.833  19.631  44.002  0.00  0.00     0.018 C 
ATOM      2  C2  LG1 d5015      42.918  19.684  45.483  0.00  0.00     0.193 C 
ATOM      3  C3  LG1 d5015      42.862  18.365  46.147  0.00  0.00     0.049 A 
ATOM      4  C4  LG1 d5015      42.820  18.284  47.541  0.00  0.00     0.037 A 
ATOM      5  C5  LG1 d5015      42.828  17.034  48.161  0.00  0.00     0.012 A 
ATOM      6  C6  LG1 d5015      42.889  15.869  47.395  0.00  0.00     0.022 A 
ATOM      7  C7  LG1 d5015      42.935  15.951  46.003  0.00  0.00     0.039 A 
ATOM      8  C8  LG1 d5015      42.905  17.197  45.376  0.00  0.00     0.083 A 
ATOM      9  O1  LG1 d5015      42.970  17.205  44.008  0.00  0.00    -0.346 OA
ATOM     10  C9  LG1 d5015      42.337  18.347  43.420  0.00  0.00     0.218 C 
ATOM     11 BR1  LG1 d5015      42.739  16.916  50.047  0.00  0.00    -0.051 Br
ATOM     12  O2  LG1 d5015      43.024  20.722  46.119  0.00  0.00    -0.287 OA
ATOM     13  C10 LG1 d5015      43.188  20.704  43.285  0.00  0.00     0.025 C 
ENDROOT
BRANCH  13  14
ATOM     14  C11 LG1 d5015      43.151  20.773  41.855  0.00  0.00    -0.029 A 
ATOM     15  C14 LG1 d5015      44.266  20.596  41.068  0.00  0.00     0.061 A 
ATOM     16  S1  LG1 d5015      43.906  20.735  39.401  0.00  0.00    -0.113 SA
ATOM     17  C13 LG1 d5015      42.252  21.033  39.727  0.00  0.00     0.050 A 
ATOM     18  C12 LG1 d5015      41.983  21.026  41.078  0.00  0.00     0.019 A 
ENDBRANCH  13  14
TORSDOF 1
ENDMDL
