REMARK INTER + INTRA:          -9.919
REMARK INTER:                  -9.435
REMARK INTRA:                  -0.484
REMARK UNBOUND:                -0.556
REMARK  2 active torsions:
REMARK  status: ('A' for Active; 'I' for Inactive)
REMARK    1  A    between atoms: C1_1  and  N1_15 
REMARK    2  A    between atoms: C7_9  and  C4_4 
ROOT
ATOM      1  C1  LG1 d5015      42.938  19.335  43.640  0.00  0.00     0.141 A 
ATOM      2  C2  LG1 d5015      42.904  20.142  44.777  0.00  0.00     0.187 A 
ATOM      3  C3  LG1 d5015      42.859  19.560  46.044  0.00  0.00     0.175 A 
ATOM      4  C4  LG1 d5015      42.847  18.171  46.174  0.00  0.00     0.131 A 
ATOM      5  C5  LG1 d5015      42.880  17.365  45.037  0.00  0.00     0.175 A 
ATOM      6  C6  LG1 d5015      42.926  17.947  43.770  0.00  0.00     0.187 A 
ATOM      7  F1  LG1 d5015      42.957  17.158  42.686  0.00  0.00    -0.200 F 
ATOM      8  F2  LG1 d5015      42.868  16.028  45.152  0.00  0.00    -0.202 F 
ATOM      9  F6  LG1 d5015      42.828  20.346  47.131  0.00  0.00    -0.202 F 
ATOM     10  F7  LG1 d5015      42.916  21.478  44.667  0.00  0.00    -0.200 F 
ENDROOT
BRANCH   1  11
ATOM     11  N1  LG1 d5015      42.982  19.911  42.383  0.00  0.00    -0.232 N 
ATOM     12  N2  LG1 d5015      44.156  20.339  41.886  0.00  0.00    -0.172 NA
ATOM     13  C10 LG1 d5015      43.818  20.824  40.689  0.00  0.00     0.053 A 
ATOM     14  C9  LG1 d5015      42.440  20.708  40.423  0.00  0.00     0.055 A 
ATOM     15  C11 LG1 d5015      44.855  21.398  39.813  0.00  0.00     0.072 C 
ATOM     16  C8  LG1 d5015      41.925  20.109  41.546  0.00  0.00     0.035 A 
ATOM     17  C12 LG1 d5015      40.540  19.719  41.875  0.00  0.00     0.070 C 
ENDBRANCH   1  11
BRANCH   4  18
ATOM     18  C7  LG1 d5015      42.798  17.550  47.529  0.00  0.00     0.423 C 
ATOM     19  F4  LG1 d5015      42.308  16.276  47.529  0.00  0.00    -0.166 F 
ATOM     20  F3  LG1 d5015      42.014  18.233  48.415  0.00  0.00    -0.166 F 
ATOM     21  F5  LG1 d5015      44.028  17.470  48.115  0.00  0.00    -0.166 F 
ENDBRANCH   4  18
TORSDOF 2
ENDMDL
