REMARK INTER + INTRA:          -7.116
REMARK INTER:                  -6.948
REMARK INTRA:                  -0.168
REMARK UNBOUND:                -0.168
REMARK  1 active torsions:
REMARK  status: ('A' for Active; 'I' for Inactive)
REMARK    1  A    between atoms: C10_13  and  C11_14 
ROOT
ATOM      1  C1  LG1 d5015      43.522  18.509  44.993  0.00  0.00     0.018 C 
ATOM      2  C2  LG1 d5015      42.904  17.578  45.971  0.00  0.00     0.193 C 
ATOM      3  C3  LG1 d5015      43.630  17.466  47.253  0.00  0.00     0.049 A 
ATOM      4  C4  LG1 d5015      43.216  16.541  48.214  0.00  0.00     0.037 A 
ATOM      5  C5  LG1 d5015      43.870  16.484  49.445  0.00  0.00     0.012 A 
ATOM      6  C6  LG1 d5015      44.926  17.353  49.722  0.00  0.00     0.022 A 
ATOM      7  C7  LG1 d5015      45.337  18.280  48.763  0.00  0.00     0.039 A 
ATOM      8  C8  LG1 d5015      44.701  18.327  47.522  0.00  0.00     0.083 A 
ATOM      9  O1  LG1 d5015      45.143  19.272  46.634  0.00  0.00    -0.346 OA
ATOM     10  C9  LG1 d5015      44.938  18.900  45.267  0.00  0.00     0.218 C 
ATOM     11 BR1  LG1 d5015      43.335  15.212  50.739  0.00  0.00    -0.051 Br
ATOM     12  O2  LG1 d5015      41.881  16.946  45.752  0.00  0.00    -0.287 OA
ATOM     13  C10 LG1 d5015      42.805  18.933  43.946  0.00  0.00     0.025 C 
ENDROOT
BRANCH  13  14
ATOM     14  C11 LG1 d5015      43.289  19.830  42.940  0.00  0.00    -0.029 A 
ATOM     15  C14 LG1 d5015      43.907  19.397  41.787  0.00  0.00     0.061 A 
ATOM     16  S1  LG1 d5015      44.372  20.701  40.780  0.00  0.00    -0.113 SA
ATOM     17  C13 LG1 d5015      43.748  21.849  41.885  0.00  0.00     0.050 A 
ATOM     18  C12 LG1 d5015      43.196  21.251  42.996  0.00  0.00     0.019 A 
ENDBRANCH  13  14
TORSDOF 1
ENDMDL
