REMARK INTER + INTRA:          -6.529
REMARK INTER:                  -6.329
REMARK INTRA:                  -0.200
REMARK UNBOUND:                -0.191
REMARK  1 active torsions:
REMARK  status: ('A' for Active; 'I' for Inactive)
REMARK    1  A    between atoms: C1_1  and  N1_10 
ROOT
ATOM      1  C1  LG1 d5015      43.957  18.082  47.289  0.00  0.00     0.056 A 
ATOM      2  C2  LG1 d5015      42.862  18.939  47.393  0.00  0.00    -0.033 A 
ATOM      3  C3  LG1 d5015      42.659  19.929  46.431  0.00  0.00     0.028 A 
ATOM      4  C4  LG1 d5015      43.550  20.063  45.367  0.00  0.00     0.012 A 
ATOM      5  C5  LG1 d5015      44.647  19.205  45.264  0.00  0.00     0.028 A 
ATOM      6  C6  LG1 d5015      44.849  18.216  46.225  0.00  0.00    -0.033 A 
ATOM      7  C7  LG1 d5015      46.033  17.313  46.088  0.00  0.00     0.050 C 
ATOM      8 BR1  LG1 d5015      43.274  21.406  44.066  0.00  0.00    -0.051 Br
ATOM      9  C8  LG1 d5015      41.889  18.820  48.520  0.00  0.00     0.050 C 
ENDROOT
BRANCH   1  10
ATOM     10  N1  LG1 d5015      44.166  17.062  48.278  0.00  0.00    -0.265 N 
ATOM     11  C11 LG1 d5015      43.647  15.770  48.191  0.00  0.00     0.148 C 
ATOM     12  S2  LG1 d5015      42.894  14.989  46.914  0.00  0.00    -0.052 SA
ATOM     13  S1  LG1 d5015      43.984  14.904  49.685  0.00  0.00    -0.090 SA
ATOM     14  C10 LG1 d5015      45.088  16.168  50.314  0.00  0.00     0.185 C 
ATOM     15  C9  LG1 d5015      44.923  17.362  49.419  0.00  0.00     0.239 C 
ATOM     16  O1  LG1 d5015      45.409  18.447  49.728  0.00  0.00    -0.272 OA
ENDBRANCH   1  10
TORSDOF 1
ENDMDL
