REMARK INTER + INTRA:          -7.397
REMARK INTER:                  -7.316
REMARK INTRA:                  -0.081
REMARK UNBOUND:                -0.081
REMARK  1 active torsions:
REMARK  status: ('A' for Active; 'I' for Inactive)
REMARK    1  A    between atoms: C10_13  and  C11_14 
ROOT
ATOM      1  C1  LG1 d5015      43.867  18.962  46.689  0.00  0.00     0.018 C 
ATOM      2  C2  LG1 d5015      43.033  19.896  45.892  0.00  0.00     0.193 C 
ATOM      3  C3  LG1 d5015      43.324  19.892  44.443  0.00  0.00     0.049 A 
ATOM      4  C4  LG1 d5015      42.689  20.805  43.599  0.00  0.00     0.037 A 
ATOM      5  C5  LG1 d5015      42.924  20.754  42.224  0.00  0.00     0.012 A 
ATOM      6  C6  LG1 d5015      43.781  19.790  41.692  0.00  0.00     0.022 A 
ATOM      7  C7  LG1 d5015      44.413  18.876  42.536  0.00  0.00     0.039 A 
ATOM      8  C8  LG1 d5015      44.199  18.936  43.913  0.00  0.00     0.083 A 
ATOM      9  O1  LG1 d5015      44.838  17.998  44.681  0.00  0.00    -0.346 OA
ATOM     10  C9  LG1 d5015      45.097  18.444  46.017  0.00  0.00     0.218 C 
ATOM     11 BR1  LG1 d5015      42.090  22.007  41.078  0.00  0.00    -0.051 Br
ATOM     12  O2  LG1 d5015      42.173  20.618  46.375  0.00  0.00    -0.287 OA
ATOM     13  C10 LG1 d5015      43.491  18.643  47.934  0.00  0.00     0.025 C 
ENDROOT
BRANCH  13  14
ATOM     14  C11 LG1 d5015      44.209  17.755  48.798  0.00  0.00    -0.029 A 
ATOM     15  C14 LG1 d5015      43.766  16.488  49.103  0.00  0.00     0.061 A 
ATOM     16  S1  LG1 d5015      44.838  15.669  50.157  0.00  0.00    -0.113 SA
ATOM     17  C13 LG1 d5015      45.900  17.011  50.207  0.00  0.00     0.050 A 
ATOM     18  C12 LG1 d5015      45.447  18.058  49.438  0.00  0.00     0.019 A 
ENDBRANCH  13  14
TORSDOF 1
ENDMDL
