REMARK INTER + INTRA:          -6.525
REMARK INTER:                  -6.320
REMARK INTRA:                  -0.205
REMARK UNBOUND:                -0.191
REMARK  1 active torsions:
REMARK  status: ('A' for Active; 'I' for Inactive)
REMARK    1  A    between atoms: C1_1  and  N1_10 
ROOT
ATOM      1  C1  LG1 d5015      43.963  18.084  47.273  0.00  0.00     0.056 A 
ATOM      2  C2  LG1 d5015      44.851  18.224  46.207  0.00  0.00    -0.033 A 
ATOM      3  C3  LG1 d5015      44.643  19.220  45.252  0.00  0.00     0.028 A 
ATOM      4  C4  LG1 d5015      43.547  20.075  45.363  0.00  0.00     0.012 A 
ATOM      5  C5  LG1 d5015      42.657  19.934  46.430  0.00  0.00     0.028 A 
ATOM      6  C6  LG1 d5015      42.867  18.939  47.383  0.00  0.00    -0.033 A 
ATOM      7  C7  LG1 d5015      41.897  18.812  48.514  0.00  0.00     0.050 C 
ATOM      8 BR1  LG1 d5015      43.264  21.422  44.068  0.00  0.00    -0.051 Br
ATOM      9  C8  LG1 d5015      46.035  17.324  46.061  0.00  0.00     0.050 C 
ENDROOT
BRANCH   1  10
ATOM     10  N1  LG1 d5015      44.178  17.060  48.256  0.00  0.00    -0.265 N 
ATOM     11  C11 LG1 d5015      43.650  15.771  48.172  0.00  0.00     0.148 C 
ATOM     12  S2  LG1 d5015      42.880  14.997  46.902  0.00  0.00    -0.052 SA
ATOM     13  S1  LG1 d5015      44.000  14.899  49.661  0.00  0.00    -0.090 SA
ATOM     14  C10 LG1 d5015      45.117  16.156  50.280  0.00  0.00     0.185 C 
ATOM     15  C9  LG1 d5015      44.949  17.354  49.390  0.00  0.00     0.239 C 
ATOM     16  O1  LG1 d5015      45.444  18.435  49.697  0.00  0.00    -0.272 OA
ENDBRANCH   1  10
TORSDOF 1
ENDMDL
