REMARK INTER + INTRA:          -8.380
REMARK INTER:                  -8.238
REMARK INTRA:                  -0.142
REMARK UNBOUND:                -0.153
REMARK  1 active torsions:
REMARK  status: ('A' for Active; 'I' for Inactive)
REMARK    1  A    between atoms: C10_13  and  C11_14 
ROOT
ATOM      1  C1  LG1 d5015      42.829  19.706  43.969  0.00  0.00     0.018 C 
ATOM      2  C2  LG1 d5015      42.906  19.763  45.451  0.00  0.00     0.193 C 
ATOM      3  C3  LG1 d5015      42.842  18.445  46.118  0.00  0.00     0.049 A 
ATOM      4  C4  LG1 d5015      42.791  18.368  47.512  0.00  0.00     0.037 A 
ATOM      5  C5  LG1 d5015      42.792  17.120  48.135  0.00  0.00     0.012 A 
ATOM      6  C6  LG1 d5015      42.853  15.953  47.373  0.00  0.00     0.022 A 
ATOM      7  C7  LG1 d5015      42.908  16.031  45.980  0.00  0.00     0.039 A 
ATOM      8  C8  LG1 d5015      42.885  17.275  45.351  0.00  0.00     0.083 A 
ATOM      9  O1  LG1 d5015      42.958  17.280  43.983  0.00  0.00    -0.346 OA
ATOM     10  C9  LG1 d5015      42.333  18.422  43.388  0.00  0.00     0.218 C 
ATOM     11 BR1  LG1 d5015      42.692  17.007  50.021  0.00  0.00    -0.051 Br
ATOM     12  O2  LG1 d5015      43.012  20.802  46.085  0.00  0.00    -0.287 OA
ATOM     13  C10 LG1 d5015      43.192  20.775  43.251  0.00  0.00     0.025 C 
ENDROOT
BRANCH  13  14
ATOM     14  C11 LG1 d5015      43.163  20.841  41.821  0.00  0.00    -0.029 A 
ATOM     15  C14 LG1 d5015      44.281  20.650  41.041  0.00  0.00     0.061 A 
ATOM     16  S1  LG1 d5015      43.932  20.789  39.371  0.00  0.00    -0.113 SA
ATOM     17  C13 LG1 d5015      42.280  21.105  39.687  0.00  0.00     0.050 A 
ATOM     18  C12 LG1 d5015      42.003  21.104  41.036  0.00  0.00     0.019 A 
ENDBRANCH  13  14
TORSDOF 1
ENDMDL
