MODEL 1
REMARK VINA RESULT:    -8.404      0.000      0.000
REMARK INTER + INTRA:          -9.942
REMARK INTER:                  -9.465
REMARK INTRA:                  -0.477
REMARK UNBOUND:                -0.556
REMARK  2 active torsions:
REMARK  status: ('A' for Active; 'I' for Inactive)
REMARK    1  A    between atoms: C1_1  and  N1_15 
REMARK    2  A    between atoms: C7_9  and  C4_4 
ROOT
ATOM      1  C1  LG1 d5015      42.919  19.311  43.650  0.00  0.00     0.141 A 
ATOM      2  C2  LG1 d5015      42.888  17.924  43.794  0.00  0.00     0.187 A 
ATOM      3  C3  LG1 d5015      42.860  17.356  45.067  0.00  0.00     0.175 A 
ATOM      4  C4  LG1 d5015      42.863  18.174  46.197  0.00  0.00     0.131 A 
ATOM      5  C5  LG1 d5015      42.894  19.561  46.053  0.00  0.00     0.175 A 
ATOM      6  C6  LG1 d5015      42.922  20.129  44.780  0.00  0.00     0.187 A 
ATOM      7  F1  LG1 d5015      42.952  21.464  44.657  0.00  0.00    -0.200 F 
ATOM      8  F2  LG1 d5015      42.898  20.355  47.134  0.00  0.00    -0.202 F 
ATOM      9  F6  LG1 d5015      42.829  16.020  45.195  0.00  0.00    -0.202 F 
ATOM     10  F7  LG1 d5015      42.884  17.125  42.717  0.00  0.00    -0.200 F 
ENDROOT
BRANCH   1  11
ATOM     11  N1  LG1 d5015      42.947  19.876  42.388  0.00  0.00    -0.232 N 
ATOM     12  N2  LG1 d5015      44.113  20.303  41.874  0.00  0.00    -0.172 NA
ATOM     13  C10 LG1 d5015      43.761  20.776  40.676  0.00  0.00     0.053 A 
ATOM     14  C9  LG1 d5015      42.381  20.652  40.426  0.00  0.00     0.055 A 
ATOM     15  C11 LG1 d5015      44.786  21.345  39.784  0.00  0.00     0.072 C 
ATOM     16  C8  LG1 d5015      41.879  20.062  41.561  0.00  0.00     0.035 A 
ATOM     17  C12 LG1 d5015      40.499  19.670  41.908  0.00  0.00     0.070 C 
ENDBRANCH   1  11
BRANCH   4  18
ATOM     18  C7  LG1 d5015      42.834  17.565  47.559  0.00  0.00     0.423 C 
ATOM     19  F4  LG1 d5015      42.348  16.289  47.577  0.00  0.00    -0.166 F 
ATOM     20  F3  LG1 d5015      42.060  18.253  48.449  0.00  0.00    -0.166 F 
ATOM     21  F5  LG1 d5015      44.072  17.494  48.129  0.00  0.00    -0.166 F 
ENDBRANCH   4  18
TORSDOF 2
ENDMDL
MODEL 2
REMARK VINA RESULT:    -8.383      0.059      2.327
REMARK INTER + INTRA:          -9.919
REMARK INTER:                  -9.435
REMARK INTRA:                  -0.484
REMARK UNBOUND:                -0.556
REMARK  2 active torsions:
REMARK  status: ('A' for Active; 'I' for Inactive)
REMARK    1  A    between atoms: C1_1  and  N1_15 
REMARK    2  A    between atoms: C7_9  and  C4_4 
ROOT
ATOM      1  C1  LG1 d5015      42.938  19.335  43.640  0.00  0.00     0.141 A 
ATOM      2  C2  LG1 d5015      42.904  20.142  44.777  0.00  0.00     0.187 A 
ATOM      3  C3  LG1 d5015      42.859  19.560  46.044  0.00  0.00     0.175 A 
ATOM      4  C4  LG1 d5015      42.847  18.171  46.174  0.00  0.00     0.131 A 
ATOM      5  C5  LG1 d5015      42.880  17.365  45.037  0.00  0.00     0.175 A 
ATOM      6  C6  LG1 d5015      42.926  17.947  43.770  0.00  0.00     0.187 A 
ATOM      7  F1  LG1 d5015      42.957  17.158  42.686  0.00  0.00    -0.200 F 
ATOM      8  F2  LG1 d5015      42.868  16.028  45.152  0.00  0.00    -0.202 F 
ATOM      9  F6  LG1 d5015      42.828  20.346  47.131  0.00  0.00    -0.202 F 
ATOM     10  F7  LG1 d5015      42.916  21.478  44.667  0.00  0.00    -0.200 F 
ENDROOT
BRANCH   1  11
ATOM     11  N1  LG1 d5015      42.982  19.911  42.383  0.00  0.00    -0.232 N 
ATOM     12  N2  LG1 d5015      44.156  20.339  41.886  0.00  0.00    -0.172 NA
ATOM     13  C10 LG1 d5015      43.818  20.824  40.689  0.00  0.00     0.053 A 
ATOM     14  C9  LG1 d5015      42.440  20.708  40.423  0.00  0.00     0.055 A 
ATOM     15  C11 LG1 d5015      44.855  21.398  39.813  0.00  0.00     0.072 C 
ATOM     16  C8  LG1 d5015      41.925  20.109  41.546  0.00  0.00     0.035 A 
ATOM     17  C12 LG1 d5015      40.540  19.719  41.875  0.00  0.00     0.070 C 
ENDBRANCH   1  11
BRANCH   4  18
ATOM     18  C7  LG1 d5015      42.798  17.550  47.529  0.00  0.00     0.423 C 
ATOM     19  F4  LG1 d5015      42.308  16.276  47.529  0.00  0.00    -0.166 F 
ATOM     20  F3  LG1 d5015      42.014  18.233  48.415  0.00  0.00    -0.166 F 
ATOM     21  F5  LG1 d5015      44.028  17.470  48.115  0.00  0.00    -0.166 F 
ENDBRANCH   4  18
TORSDOF 2
ENDMDL
MODEL 3
REMARK VINA RESULT:    -7.984      2.550      5.835
REMARK INTER + INTRA:          -9.473
REMARK INTER:                  -9.020
REMARK INTRA:                  -0.453
REMARK UNBOUND:                -0.556
REMARK  2 active torsions:
REMARK  status: ('A' for Active; 'I' for Inactive)
REMARK    1  A    between atoms: C1_1  and  N1_15 
REMARK    2  A    between atoms: C7_9  and  C4_4 
ROOT
ATOM      1  C1  LG1 d5015      42.854  18.970  44.404  0.00  0.00     0.141 A 
ATOM      2  C2  LG1 d5015      41.868  18.724  43.448  0.00  0.00     0.187 A 
ATOM      3  C3  LG1 d5015      41.788  19.522  42.307  0.00  0.00     0.175 A 
ATOM      4  C4  LG1 d5015      42.693  20.566  42.121  0.00  0.00     0.131 A 
ATOM      5  C5  LG1 d5015      43.678  20.813  43.077  0.00  0.00     0.175 A 
ATOM      6  C6  LG1 d5015      43.759  20.015  44.217  0.00  0.00     0.187 A 
ATOM      7  F1  LG1 d5015      44.712  20.264  45.127  0.00  0.00    -0.200 F 
ATOM      8  F2  LG1 d5015      44.553  21.816  42.906  0.00  0.00    -0.202 F 
ATOM      9  F6  LG1 d5015      40.836  19.275  41.395  0.00  0.00    -0.202 F 
ATOM     10  F7  LG1 d5015      40.991  17.722  43.615  0.00  0.00    -0.200 F 
ENDROOT
BRANCH   1  11
ATOM     11  N1  LG1 d5015      42.934  18.180  45.536  0.00  0.00    -0.232 N 
ATOM     12  N2  LG1 d5015      43.510  16.967  45.464  0.00  0.00    -0.172 NA
ATOM     13  C10 LG1 d5015      43.406  16.509  46.714  0.00  0.00     0.053 A 
ATOM     14  C9  LG1 d5015      42.769  17.420  47.577  0.00  0.00     0.055 A 
ATOM     15  C11 LG1 d5015      43.937  15.176  47.050  0.00  0.00     0.072 C 
ATOM     16  C8  LG1 d5015      42.474  18.498  46.779  0.00  0.00     0.035 A 
ATOM     17  C12 LG1 d5015      41.808  19.775  47.100  0.00  0.00     0.070 C 
ENDBRANCH   1  11
BRANCH   4  18
ATOM     18  C7  LG1 d5015      42.605  21.420  40.901  0.00  0.00     0.423 C 
ATOM     19  F4  LG1 d5015      42.035  20.789  39.832  0.00  0.00    -0.166 F 
ATOM     20  F3  LG1 d5015      43.819  21.856  40.451  0.00  0.00    -0.166 F 
ATOM     21  F5  LG1 d5015      41.862  22.547  41.101  0.00  0.00    -0.166 F 
ENDBRANCH   4  18
TORSDOF 2
ENDMDL
MODEL 4
REMARK VINA RESULT:    -7.902      2.494      6.379
REMARK INTER + INTRA:          -9.382
REMARK INTER:                  -8.826
REMARK INTRA:                  -0.556
REMARK UNBOUND:                -0.556
REMARK  2 active torsions:
REMARK  status: ('A' for Active; 'I' for Inactive)
REMARK    1  A    between atoms: C1_1  and  N1_15 
REMARK    2  A    between atoms: C7_9  and  C4_4 
ROOT
ATOM      1  C1  LG1 d5015      43.271  18.291  45.915  0.00  0.00     0.141 A 
ATOM      2  C2  LG1 d5015      43.300  19.683  45.834  0.00  0.00     0.187 A 
ATOM      3  C3  LG1 d5015      42.921  20.321  44.653  0.00  0.00     0.175 A 
ATOM      4  C4  LG1 d5015      42.513  19.567  43.553  0.00  0.00     0.131 A 
ATOM      5  C5  LG1 d5015      42.485  18.176  43.633  0.00  0.00     0.175 A 
ATOM      6  C6  LG1 d5015      42.864  17.538  44.814  0.00  0.00     0.187 A 
ATOM      7  F1  LG1 d5015      42.831  16.199  44.877  0.00  0.00    -0.200 F 
ATOM      8  F2  LG1 d5015      42.095  17.442  42.580  0.00  0.00    -0.202 F 
ATOM      9  F6  LG1 d5015      42.951  21.661  44.586  0.00  0.00    -0.202 F 
ATOM     10  F7  LG1 d5015      43.690  20.421  46.884  0.00  0.00    -0.200 F 
ENDROOT
BRANCH   1  11
ATOM     11  N1  LG1 d5015      43.648  17.658  47.085  0.00  0.00    -0.232 N 
ATOM     12  N2  LG1 d5015      42.742  17.461  48.059  0.00  0.00    -0.172 NA
ATOM     13  C10 LG1 d5015      43.448  16.841  49.007  0.00  0.00     0.053 A 
ATOM     14  C9  LG1 d5015      44.794  16.643  48.643  0.00  0.00     0.055 A 
ATOM     15  C11 LG1 d5015      42.793  16.446  50.266  0.00  0.00     0.072 C 
ATOM     16  C8  LG1 d5015      44.891  17.186  47.385  0.00  0.00     0.035 A 
ATOM     17  C12 LG1 d5015      46.046  17.287  46.471  0.00  0.00     0.070 C 
ENDBRANCH   1  11
BRANCH   4  18
ATOM     18  C7  LG1 d5015      42.108  20.251  42.289  0.00  0.00     0.423 C 
ATOM     19  F4  LG1 d5015      42.843  19.871  41.203  0.00  0.00    -0.166 F 
ATOM     20  F3  LG1 d5015      42.225  21.610  42.342  0.00  0.00    -0.166 F 
ATOM     21  F5  LG1 d5015      40.807  20.008  41.955  0.00  0.00    -0.166 F 
ENDBRANCH   4  18
TORSDOF 2
ENDMDL
MODEL 5
REMARK VINA RESULT:    -7.883      2.489      5.939
REMARK INTER + INTRA:          -9.361
REMARK INTER:                  -8.807
REMARK INTRA:                  -0.553
REMARK UNBOUND:                -0.556
REMARK  2 active torsions:
REMARK  status: ('A' for Active; 'I' for Inactive)
REMARK    1  A    between atoms: C1_1  and  N1_15 
REMARK    2  A    between atoms: C7_9  and  C4_4 
ROOT
ATOM      1  C1  LG1 d5015      43.285  18.313  45.906  0.00  0.00     0.141 A 
ATOM      2  C2  LG1 d5015      42.886  17.536  44.819  0.00  0.00     0.187 A 
ATOM      3  C3  LG1 d5015      42.492  18.150  43.630  0.00  0.00     0.175 A 
ATOM      4  C4  LG1 d5015      42.496  19.541  43.529  0.00  0.00     0.131 A 
ATOM      5  C5  LG1 d5015      42.894  20.318  44.616  0.00  0.00     0.175 A 
ATOM      6  C6  LG1 d5015      43.288  19.704  45.805  0.00  0.00     0.187 A 
ATOM      7  F1  LG1 d5015      43.668  20.464  46.842  0.00  0.00    -0.200 F 
ATOM      8  F2  LG1 d5015      42.900  21.657  44.528  0.00  0.00    -0.202 F 
ATOM      9  F6  LG1 d5015      42.112  17.393  42.590  0.00  0.00    -0.202 F 
ATOM     10  F7  LG1 d5015      42.878  16.197  44.902  0.00  0.00    -0.200 F 
ENDROOT
BRANCH   1  11
ATOM     11  N1  LG1 d5015      43.675  17.705  47.086  0.00  0.00    -0.232 N 
ATOM     12  N2  LG1 d5015      42.779  17.523  48.071  0.00  0.00    -0.172 NA
ATOM     13  C10 LG1 d5015      43.496  16.925  49.026  0.00  0.00     0.053 A 
ATOM     14  C9  LG1 d5015      44.839  16.727  48.654  0.00  0.00     0.055 A 
ATOM     15  C11 LG1 d5015      42.853  16.552  50.297  0.00  0.00     0.072 C 
ATOM     16  C8  LG1 d5015      44.923  17.246  47.385  0.00  0.00     0.035 A 
ATOM     17  C12 LG1 d5015      46.069  17.334  46.459  0.00  0.00     0.070 C 
ENDBRANCH   1  11
BRANCH   4  18
ATOM     18  C7  LG1 d5015      42.074  20.197  42.257  0.00  0.00     0.423 C 
ATOM     19  F4  LG1 d5015      42.827  19.834  41.178  0.00  0.00    -0.166 F 
ATOM     20  F3  LG1 d5015      42.142  21.561  42.297  0.00  0.00    -0.166 F 
ATOM     21  F5  LG1 d5015      40.784  19.905  41.919  0.00  0.00    -0.166 F 
ENDBRANCH   4  18
TORSDOF 2
ENDMDL
