REMARK INTER + INTRA:          -6.534
REMARK INTER:                  -6.331
REMARK INTRA:                  -0.203
REMARK UNBOUND:                -0.074
REMARK  1 active torsions:
REMARK  status: ('A' for Active; 'I' for Inactive)
REMARK    1  A    between atoms: C1_1  and  N1_10 
ROOT
ATOM      1  C1  LG1 d5015      43.967  18.084  47.295  0.00  0.00     0.056 A 
ATOM      2  C2  LG1 d5015      42.872  18.943  47.392  0.00  0.00    -0.033 A 
ATOM      3  C3  LG1 d5015      42.676  19.933  46.429  0.00  0.00     0.028 A 
ATOM      4  C4  LG1 d5015      43.574  20.066  45.371  0.00  0.00     0.012 A 
ATOM      5  C5  LG1 d5015      44.671  19.207  45.275  0.00  0.00     0.028 A 
ATOM      6  C6  LG1 d5015      44.866  18.217  46.237  0.00  0.00    -0.033 A 
ATOM      7  C7  LG1 d5015      46.049  17.313  46.108  0.00  0.00     0.050 C 
ATOM      8 BR1  LG1 d5015      43.309  21.409  44.068  0.00  0.00    -0.051 Br
ATOM      9  C8  LG1 d5015      41.891  18.825  48.513  0.00  0.00     0.050 C 
ENDROOT
BRANCH   1  10
ATOM     10  N1  LG1 d5015      44.168  17.064  48.285  0.00  0.00    -0.265 N 
ATOM     11  C11 LG1 d5015      43.646  15.774  48.196  0.00  0.00     0.148 C 
ATOM     12  S2  LG1 d5015      42.897  14.993  46.915  0.00  0.00    -0.052 SA
ATOM     13  S1  LG1 d5015      43.973  14.906  49.692  0.00  0.00    -0.090 SA
ATOM     14  C10 LG1 d5015      45.077  16.167  50.326  0.00  0.00     0.185 C 
ATOM     15  C9  LG1 d5015      44.920  17.362  49.430  0.00  0.00     0.239 C 
ATOM     16  O1  LG1 d5015      45.407  18.446  49.742  0.00  0.00    -0.272 OA
ENDBRANCH   1  10
TORSDOF 1
ENDMDL
