REMARK INTER + INTRA:          -7.565
REMARK INTER:                  -7.433
REMARK INTRA:                  -0.132
REMARK UNBOUND:                -0.084
REMARK  1 active torsions:
REMARK  status: ('A' for Active; 'I' for Inactive)
REMARK    1  A    between atoms: C10_13  and  C11_14 
ROOT
ATOM      1  C1  LG1 d5015      43.078  18.251  45.364  0.00  0.00     0.018 C 
ATOM      2  C2  LG1 d5015      42.862  18.135  43.900  0.00  0.00     0.193 C 
ATOM      3  C3  LG1 d5015      43.120  19.378  43.143  0.00  0.00     0.049 A 
ATOM      4  C4  LG1 d5015      42.847  19.434  41.774  0.00  0.00     0.037 A 
ATOM      5  C5  LG1 d5015      43.150  20.592  41.056  0.00  0.00     0.012 A 
ATOM      6  C6  LG1 d5015      43.732  21.686  41.697  0.00  0.00     0.022 A 
ATOM      7  C7  LG1 d5015      44.008  21.627  43.064  0.00  0.00     0.039 A 
ATOM      8  C8  LG1 d5015      43.687  20.482  43.792  0.00  0.00     0.083 A 
ATOM      9  O1  LG1 d5015      44.001  20.486  45.125  0.00  0.00    -0.346 OA
ATOM     10  C9  LG1 d5015      43.150  19.641  45.907  0.00  0.00     0.218 C 
ATOM     11 BR1  LG1 d5015      42.754  20.685  39.208  0.00  0.00    -0.051 Br
ATOM     12  O2  LG1 d5015      42.500  17.107  43.347  0.00  0.00    -0.287 OA
ATOM     13  C10 LG1 d5015      43.188  17.140  46.102  0.00  0.00     0.025 C 
ENDROOT
BRANCH  13  14
ATOM     14  C11 LG1 d5015      43.397  17.123  47.518  0.00  0.00    -0.029 A 
ATOM     15  C14 LG1 d5015      44.630  16.901  48.089  0.00  0.00     0.061 A 
ATOM     16  S1  LG1 d5015      44.564  16.943  49.798  0.00  0.00    -0.113 SA
ATOM     17  C13 LG1 d5015      42.882  17.258  49.781  0.00  0.00     0.050 A 
ATOM     18  C12 LG1 d5015      42.384  17.330  48.498  0.00  0.00     0.019 A 
ENDBRANCH  13  14
TORSDOF 1
ENDMDL
