MODEL 1
REMARK VINA RESULT:    -6.102      0.000      0.000
REMARK INTER + INTRA:          -6.534
REMARK INTER:                  -6.331
REMARK INTRA:                  -0.203
REMARK UNBOUND:                -0.074
REMARK  1 active torsions:
REMARK  status: ('A' for Active; 'I' for Inactive)
REMARK    1  A    between atoms: C1_1  and  N1_10 
ROOT
ATOM      1  C1  LG1 d5015      43.967  18.084  47.295  0.00  0.00     0.056 A 
ATOM      2  C2  LG1 d5015      42.872  18.943  47.392  0.00  0.00    -0.033 A 
ATOM      3  C3  LG1 d5015      42.676  19.933  46.429  0.00  0.00     0.028 A 
ATOM      4  C4  LG1 d5015      43.574  20.066  45.371  0.00  0.00     0.012 A 
ATOM      5  C5  LG1 d5015      44.671  19.207  45.275  0.00  0.00     0.028 A 
ATOM      6  C6  LG1 d5015      44.866  18.217  46.237  0.00  0.00    -0.033 A 
ATOM      7  C7  LG1 d5015      46.049  17.313  46.108  0.00  0.00     0.050 C 
ATOM      8 BR1  LG1 d5015      43.309  21.409  44.068  0.00  0.00    -0.051 Br
ATOM      9  C8  LG1 d5015      41.891  18.825  48.513  0.00  0.00     0.050 C 
ENDROOT
BRANCH   1  10
ATOM     10  N1  LG1 d5015      44.168  17.064  48.285  0.00  0.00    -0.265 N 
ATOM     11  C11 LG1 d5015      43.646  15.774  48.196  0.00  0.00     0.148 C 
ATOM     12  S2  LG1 d5015      42.897  14.993  46.915  0.00  0.00    -0.052 SA
ATOM     13  S1  LG1 d5015      43.973  14.906  49.692  0.00  0.00    -0.090 SA
ATOM     14  C10 LG1 d5015      45.077  16.167  50.326  0.00  0.00     0.185 C 
ATOM     15  C9  LG1 d5015      44.920  17.362  49.430  0.00  0.00     0.239 C 
ATOM     16  O1  LG1 d5015      45.407  18.446  49.742  0.00  0.00    -0.272 OA
ENDBRANCH   1  10
TORSDOF 1
ENDMDL
MODEL 2
REMARK VINA RESULT:    -6.095      0.036      2.152
REMARK INTER + INTRA:          -6.525
REMARK INTER:                  -6.321
REMARK INTRA:                  -0.204
REMARK UNBOUND:                -0.074
REMARK  1 active torsions:
REMARK  status: ('A' for Active; 'I' for Inactive)
REMARK    1  A    between atoms: C1_1  and  N1_10 
ROOT
ATOM      1  C1  LG1 d5015      43.963  18.084  47.273  0.00  0.00     0.056 A 
ATOM      2  C2  LG1 d5015      44.851  18.224  46.207  0.00  0.00    -0.033 A 
ATOM      3  C3  LG1 d5015      44.643  19.220  45.252  0.00  0.00     0.028 A 
ATOM      4  C4  LG1 d5015      43.547  20.075  45.363  0.00  0.00     0.012 A 
ATOM      5  C5  LG1 d5015      42.657  19.934  46.430  0.00  0.00     0.028 A 
ATOM      6  C6  LG1 d5015      42.866  18.939  47.383  0.00  0.00    -0.033 A 
ATOM      7  C7  LG1 d5015      41.896  18.814  48.514  0.00  0.00     0.050 C 
ATOM      8 BR1  LG1 d5015      43.265  21.423  44.068  0.00  0.00    -0.051 Br
ATOM      9  C8  LG1 d5015      46.035  17.324  46.062  0.00  0.00     0.050 C 
ENDROOT
BRANCH   1  10
ATOM     10  N1  LG1 d5015      44.177  17.061  48.257  0.00  0.00    -0.265 N 
ATOM     11  C11 LG1 d5015      43.651  15.772  48.172  0.00  0.00     0.148 C 
ATOM     12  S2  LG1 d5015      42.882  14.996  46.901  0.00  0.00    -0.052 SA
ATOM     13  S1  LG1 d5015      43.999  14.900  49.661  0.00  0.00    -0.090 SA
ATOM     14  C10 LG1 d5015      45.114  16.157  50.282  0.00  0.00     0.185 C 
ATOM     15  C9  LG1 d5015      44.945  17.355  49.392  0.00  0.00     0.239 C 
ATOM     16  O1  LG1 d5015      45.439  18.437  49.700  0.00  0.00    -0.272 OA
ENDBRANCH   1  10
TORSDOF 1
ENDMDL
MODEL 3
REMARK VINA RESULT:    -5.879      1.934      2.290
REMARK INTER + INTRA:          -6.297
REMARK INTER:                  -6.090
REMARK INTRA:                  -0.207
REMARK UNBOUND:                -0.074
REMARK  1 active torsions:
REMARK  status: ('A' for Active; 'I' for Inactive)
REMARK    1  A    between atoms: C1_1  and  N1_10 
ROOT
ATOM      1  C1  LG1 d5015      43.947  17.390  46.971  0.00  0.00     0.056 A 
ATOM      2  C2  LG1 d5015      43.150  16.737  46.032  0.00  0.00    -0.033 A 
ATOM      3  C3  LG1 d5015      42.976  17.286  44.762  0.00  0.00     0.028 A 
ATOM      4  C4  LG1 d5015      43.600  18.488  44.430  0.00  0.00     0.012 A 
ATOM      5  C5  LG1 d5015      44.397  19.143  45.371  0.00  0.00     0.028 A 
ATOM      6  C6  LG1 d5015      44.570  18.594  46.640  0.00  0.00    -0.033 A 
ATOM      7  C7  LG1 d5015      45.430  19.318  47.625  0.00  0.00     0.050 C 
ATOM      8 BR1  LG1 d5015      43.362  19.233  42.709  0.00  0.00    -0.051 Br
ATOM      9  C8  LG1 d5015      42.470  15.446  46.358  0.00  0.00     0.050 C 
ENDROOT
BRANCH   1  10
ATOM     10  N1  LG1 d5015      44.128  16.825  48.278  0.00  0.00    -0.265 N 
ATOM     11  C11 LG1 d5015      45.131  15.912  48.605  0.00  0.00     0.148 C 
ATOM     12  S2  LG1 d5015      46.473  15.418  47.730  0.00  0.00    -0.052 SA
ATOM     13  S1  LG1 d5015      44.886  15.337  50.250  0.00  0.00    -0.090 SA
ATOM     14  C10 LG1 d5015      43.613  16.544  50.613  0.00  0.00     0.185 C 
ATOM     15  C9  LG1 d5015      43.243  17.182  49.305  0.00  0.00     0.239 C 
ATOM     16  O1  LG1 d5015      42.255  17.907  49.221  0.00  0.00    -0.272 OA
ENDBRANCH   1  10
TORSDOF 1
ENDMDL
MODEL 4
REMARK VINA RESULT:    -5.861      1.934      2.427
REMARK INTER + INTRA:          -6.279
REMARK INTER:                  -6.071
REMARK INTRA:                  -0.208
REMARK UNBOUND:                -0.074
REMARK  1 active torsions:
REMARK  status: ('A' for Active; 'I' for Inactive)
REMARK    1  A    between atoms: C1_1  and  N1_10 
ROOT
ATOM      1  C1  LG1 d5015      44.014  17.390  46.933  0.00  0.00     0.056 A 
ATOM      2  C2  LG1 d5015      44.641  18.588  46.590  0.00  0.00    -0.033 A 
ATOM      3  C3  LG1 d5015      44.453  19.134  45.320  0.00  0.00     0.028 A 
ATOM      4  C4  LG1 d5015      43.639  18.483  44.394  0.00  0.00     0.012 A 
ATOM      5  C5  LG1 d5015      43.012  17.284  44.737  0.00  0.00     0.028 A 
ATOM      6  C6  LG1 d5015      43.200  16.739  46.006  0.00  0.00    -0.033 A 
ATOM      7  C7  LG1 d5015      42.516  15.454  46.345  0.00  0.00     0.050 C 
ATOM      8 BR1  LG1 d5015      43.386  19.223  42.673  0.00  0.00    -0.051 Br
ATOM      9  C8  LG1 d5015      45.518  19.309  47.561  0.00  0.00     0.050 C 
ENDROOT
BRANCH   1  10
ATOM     10  N1  LG1 d5015      44.206  16.828  48.240  0.00  0.00    -0.265 N 
ATOM     11  C11 LG1 d5015      45.203  15.906  48.557  0.00  0.00     0.148 C 
ATOM     12  S2  LG1 d5015      46.527  15.391  47.666  0.00  0.00    -0.052 SA
ATOM     13  S1  LG1 d5015      44.974  15.340  50.208  0.00  0.00    -0.090 SA
ATOM     14  C10 LG1 d5015      43.720  16.565  50.584  0.00  0.00     0.185 C 
ATOM     15  C9  LG1 d5015      43.340  17.201  49.278  0.00  0.00     0.239 C 
ATOM     16  O1  LG1 d5015      42.359  17.938  49.204  0.00  0.00    -0.272 OA
ENDBRANCH   1  10
TORSDOF 1
ENDMDL
MODEL 5
REMARK VINA RESULT:    -5.657      1.667      2.102
REMARK INTER + INTRA:          -6.062
REMARK INTER:                  -5.988
REMARK INTRA:                  -0.074
REMARK UNBOUND:                -0.074
REMARK  1 active torsions:
REMARK  status: ('A' for Active; 'I' for Inactive)
REMARK    1  A    between atoms: C1_1  and  N1_10 
ROOT
ATOM      1  C1  LG1 d5015      44.132  18.016  47.321  0.00  0.00     0.056 A 
ATOM      2  C2  LG1 d5015      43.029  18.854  47.479  0.00  0.00    -0.033 A 
ATOM      3  C3  LG1 d5015      42.766  19.846  46.535  0.00  0.00     0.028 A 
ATOM      4  C4  LG1 d5015      43.606  20.001  45.432  0.00  0.00     0.012 A 
ATOM      5  C5  LG1 d5015      44.711  19.162  45.274  0.00  0.00     0.028 A 
ATOM      6  C6  LG1 d5015      44.973  18.171  46.218  0.00  0.00    -0.033 A 
ATOM      7  C7  LG1 d5015      46.163  17.288  46.022  0.00  0.00     0.050 C 
ATOM      8 BR1  LG1 d5015      43.250  21.347  44.154  0.00  0.00    -0.051 Br
ATOM      9  C8  LG1 d5015      42.110  18.712  48.649  0.00  0.00     0.050 C 
ENDROOT
BRANCH   1  10
ATOM     10  N1  LG1 d5015      44.402  16.993  48.291  0.00  0.00    -0.265 N 
ATOM     11  C11 LG1 d5015      45.364  17.103  49.296  0.00  0.00     0.148 C 
ATOM     12  S2  LG1 d5015      46.255  18.428  49.804  0.00  0.00    -0.052 SA
ATOM     13  S1  LG1 d5015      45.498  15.568  50.147  0.00  0.00    -0.090 SA
ATOM     14  C10 LG1 d5015      44.050  14.864  49.359  0.00  0.00     0.185 C 
ATOM     15  C9  LG1 d5015      43.680  15.793  48.238  0.00  0.00     0.239 C 
ATOM     16  O1  LG1 d5015      42.845  15.460  47.400  0.00  0.00    -0.272 OA
ENDBRANCH   1  10
TORSDOF 1
ENDMDL
