REMARK INTER + INTRA:          -6.071
REMARK INTER:                  -5.939
REMARK INTRA:                  -0.132
REMARK UNBOUND:                -0.132
REMARK  1 active torsions:
REMARK  status: ('A' for Active; 'I' for Inactive)
REMARK    1  A    between atoms: C1_1  and  N1_10 
ROOT
ATOM      1  C1  LG1 d5015      44.153  17.864  47.399  0.00  0.00     0.056 A 
ATOM      2  C2  LG1 d5015      44.962  18.099  46.288  0.00  0.00    -0.033 A 
ATOM      3  C3  LG1 d5015      44.660  19.146  45.415  0.00  0.00     0.028 A 
ATOM      4  C4  LG1 d5015      43.550  19.955  45.654  0.00  0.00     0.012 A 
ATOM      5  C5  LG1 d5015      42.740  19.719  46.766  0.00  0.00     0.028 A 
ATOM      6  C6  LG1 d5015      43.042  18.673  47.637  0.00  0.00    -0.033 A 
ATOM      7  C7  LG1 d5015      42.156  18.444  48.819  0.00  0.00     0.050 C 
ATOM      8 BR1  LG1 d5015      43.141  21.372  44.470  0.00  0.00    -0.051 Br
ATOM      9  C8  LG1 d5015      46.158  17.250  46.007  0.00  0.00     0.050 C 
ENDROOT
BRANCH   1  10
ATOM     10  N1  LG1 d5015      44.463  16.788  48.298  0.00  0.00    -0.265 N 
ATOM     11  C11 LG1 d5015      45.419  16.867  49.311  0.00  0.00     0.148 C 
ATOM     12  S2  LG1 d5015      46.255  18.189  49.912  0.00  0.00    -0.052 SA
ATOM     13  S1  LG1 d5015      45.614  15.284  50.055  0.00  0.00    -0.090 SA
ATOM     14  C10 LG1 d5015      44.196  14.578  49.214  0.00  0.00     0.185 C 
ATOM     15  C9  LG1 d5015      43.791  15.567  48.160  0.00  0.00     0.239 C 
ATOM     16  O1  LG1 d5015      42.970  15.259  47.297  0.00  0.00    -0.272 OA
ENDBRANCH   1  10
TORSDOF 1
ENDMDL
