REMARK INTER + INTRA:          -8.106
REMARK INTER:                  -7.937
REMARK INTRA:                  -0.169
REMARK UNBOUND:                -0.168
REMARK  1 active torsions:
REMARK  status: ('A' for Active; 'I' for Inactive)
REMARK    1  A    between atoms: C10_13  and  C11_14 
ROOT
ATOM      1  C1  LG1 d5015      44.035  19.309  45.049  0.00  0.00     0.018 C 
ATOM      2  C2  LG1 d5015      44.669  18.332  45.969  0.00  0.00     0.193 C 
ATOM      3  C3  LG1 d5015      43.972  18.168  47.263  0.00  0.00     0.049 A 
ATOM      4  C4  LG1 d5015      44.528  17.363  48.260  0.00  0.00     0.037 A 
ATOM      5  C5  LG1 d5015      43.834  17.166  49.454  0.00  0.00     0.012 A 
ATOM      6  C6  LG1 d5015      42.586  17.759  49.650  0.00  0.00     0.022 A 
ATOM      7  C7  LG1 d5015      42.031  18.560  48.651  0.00  0.00     0.039 A 
ATOM      8  C8  LG1 d5015      42.729  18.779  47.464  0.00  0.00     0.083 A 
ATOM      9  O1  LG1 d5015      42.118  19.562  46.520  0.00  0.00    -0.346 OA
ATOM     10  C9  LG1 d5015      43.044  20.242  45.666  0.00  0.00     0.218 C 
ATOM     11 BR1  LG1 d5015      44.594  16.102  50.822  0.00  0.00    -0.051 Br
ATOM     12  O2  LG1 d5015      45.684  17.706  45.700  0.00  0.00    -0.287 OA
ATOM     13  C10 LG1 d5015      44.377  19.310  43.755  0.00  0.00     0.025 C 
ENDROOT
BRANCH  13  14
ATOM     14  C11 LG1 d5015      43.835  20.201  42.773  0.00  0.00    -0.029 A 
ATOM     15  C14 LG1 d5015      42.721  19.898  42.022  0.00  0.00     0.061 A 
ATOM     16  S1  LG1 d5015      42.318  21.159  40.936  0.00  0.00    -0.113 SA
ATOM     17  C13 LG1 d5015      43.634  22.114  41.468  0.00  0.00     0.050 A 
ATOM     18  C12 LG1 d5015      44.364  21.485  42.452  0.00  0.00     0.019 A 
ENDBRANCH  13  14
TORSDOF 1
ENDMDL
