MODEL 1
REMARK VINA RESULT:    -6.051      0.000      0.000
REMARK INTER + INTRA:          -6.537
REMARK INTER:                  -6.338
REMARK INTRA:                  -0.199
REMARK UNBOUND:                -0.132
REMARK  1 active torsions:
REMARK  status: ('A' for Active; 'I' for Inactive)
REMARK    1  A    between atoms: C1_1  and  N1_10 
ROOT
ATOM      1  C1  LG1 d5015      43.955  18.093  47.272  0.00  0.00     0.056 A 
ATOM      2  C2  LG1 d5015      44.855  18.217  46.215  0.00  0.00    -0.033 A 
ATOM      3  C3  LG1 d5015      44.667  19.209  45.252  0.00  0.00     0.028 A 
ATOM      4  C4  LG1 d5015      43.579  20.076  45.346  0.00  0.00     0.012 A 
ATOM      5  C5  LG1 d5015      42.677  19.950  46.405  0.00  0.00     0.028 A 
ATOM      6  C6  LG1 d5015      42.866  18.959  47.366  0.00  0.00    -0.033 A 
ATOM      7  C7  LG1 d5015      41.884  18.850  48.488  0.00  0.00     0.050 C 
ATOM      8 BR1  LG1 d5015      43.323  21.418  44.040  0.00  0.00    -0.051 Br
ATOM      9  C8  LG1 d5015      46.032  17.305  46.087  0.00  0.00     0.050 C 
ENDROOT
BRANCH   1  10
ATOM     10  N1  LG1 d5015      44.149  17.073  48.264  0.00  0.00    -0.265 N 
ATOM     11  C11 LG1 d5015      43.620  15.786  48.177  0.00  0.00     0.148 C 
ATOM     12  S2  LG1 d5015      42.871  15.007  46.897  0.00  0.00    -0.052 SA
ATOM     13  S1  LG1 d5015      43.940  14.919  49.675  0.00  0.00    -0.090 SA
ATOM     14  C10 LG1 d5015      45.049  16.177  50.310  0.00  0.00     0.185 C 
ATOM     15  C9  LG1 d5015      44.899  17.370  49.411  0.00  0.00     0.239 C 
ATOM     16  O1  LG1 d5015      45.391  18.452  49.722  0.00  0.00    -0.272 OA
ENDBRANCH   1  10
TORSDOF 1
ENDMDL
MODEL 2
REMARK VINA RESULT:    -6.039      0.041      2.152
REMARK INTER + INTRA:          -6.524
REMARK INTER:                  -6.323
REMARK INTRA:                  -0.201
REMARK UNBOUND:                -0.132
REMARK  1 active torsions:
REMARK  status: ('A' for Active; 'I' for Inactive)
REMARK    1  A    between atoms: C1_1  and  N1_10 
ROOT
ATOM      1  C1  LG1 d5015      43.961  18.084  47.274  0.00  0.00     0.056 A 
ATOM      2  C2  LG1 d5015      42.865  18.939  47.385  0.00  0.00    -0.033 A 
ATOM      3  C3  LG1 d5015      42.657  19.933  46.428  0.00  0.00     0.028 A 
ATOM      4  C4  LG1 d5015      43.544  20.071  45.361  0.00  0.00     0.012 A 
ATOM      5  C5  LG1 d5015      44.642  19.215  45.251  0.00  0.00     0.028 A 
ATOM      6  C6  LG1 d5015      44.849  18.223  46.207  0.00  0.00    -0.033 A 
ATOM      7  C7  LG1 d5015      46.033  17.322  46.062  0.00  0.00     0.050 C 
ATOM      8 BR1  LG1 d5015      43.263  21.419  44.066  0.00  0.00    -0.051 Br
ATOM      9  C8  LG1 d5015      41.896  18.814  48.515  0.00  0.00     0.050 C 
ENDROOT
BRANCH   1  10
ATOM     10  N1  LG1 d5015      44.175  17.060  48.257  0.00  0.00    -0.265 N 
ATOM     11  C11 LG1 d5015      43.651  15.770  48.170  0.00  0.00     0.148 C 
ATOM     12  S2  LG1 d5015      42.887  14.994  46.897  0.00  0.00    -0.052 SA
ATOM     13  S1  LG1 d5015      43.997  14.897  49.659  0.00  0.00    -0.090 SA
ATOM     14  C10 LG1 d5015      45.109  16.157  50.284  0.00  0.00     0.185 C 
ATOM     15  C9  LG1 d5015      44.940  17.354  49.394  0.00  0.00     0.239 C 
ATOM     16  O1  LG1 d5015      45.431  18.437  49.704  0.00  0.00    -0.272 OA
ENDBRANCH   1  10
TORSDOF 1
ENDMDL
MODEL 3
REMARK VINA RESULT:    -5.801      1.939      2.290
REMARK INTER + INTRA:          -6.273
REMARK INTER:                  -6.065
REMARK INTRA:                  -0.207
REMARK UNBOUND:                -0.132
REMARK  1 active torsions:
REMARK  status: ('A' for Active; 'I' for Inactive)
REMARK    1  A    between atoms: C1_1  and  N1_10 
ROOT
ATOM      1  C1  LG1 d5015      43.991  17.389  46.962  0.00  0.00     0.056 A 
ATOM      2  C2  LG1 d5015      44.606  18.593  46.619  0.00  0.00    -0.033 A 
ATOM      3  C3  LG1 d5015      44.410  19.140  45.351  0.00  0.00     0.028 A 
ATOM      4  C4  LG1 d5015      43.599  18.483  44.426  0.00  0.00     0.012 A 
ATOM      5  C5  LG1 d5015      42.984  17.277  44.769  0.00  0.00     0.028 A 
ATOM      6  C6  LG1 d5015      43.181  16.732  46.036  0.00  0.00    -0.033 A 
ATOM      7  C7  LG1 d5015      42.509  15.440  46.374  0.00  0.00     0.050 C 
ATOM      8 BR1  LG1 d5015      43.335  19.224  42.707  0.00  0.00    -0.051 Br
ATOM      9  C8  LG1 d5015      45.479  19.321  47.590  0.00  0.00     0.050 C 
ENDROOT
BRANCH   1  10
ATOM     10  N1  LG1 d5015      44.192  16.826  48.268  0.00  0.00    -0.265 N 
ATOM     11  C11 LG1 d5015      45.202  15.917  48.581  0.00  0.00     0.148 C 
ATOM     12  S2  LG1 d5015      46.532  15.425  47.688  0.00  0.00    -0.052 SA
ATOM     13  S1  LG1 d5015      44.982  15.344  50.230  0.00  0.00    -0.090 SA
ATOM     14  C10 LG1 d5015      43.711  16.550  50.610  0.00  0.00     0.185 C 
ATOM     15  C9  LG1 d5015      43.321  17.184  49.306  0.00  0.00     0.239 C 
ATOM     16  O1  LG1 d5015      42.329  17.906  49.234  0.00  0.00    -0.272 OA
ENDBRANCH   1  10
TORSDOF 1
ENDMDL
MODEL 4
REMARK VINA RESULT:    -5.791      1.937      2.417
REMARK INTER + INTRA:          -6.261
REMARK INTER:                  -6.056
REMARK INTRA:                  -0.205
REMARK UNBOUND:                -0.132
REMARK  1 active torsions:
REMARK  status: ('A' for Active; 'I' for Inactive)
REMARK    1  A    between atoms: C1_1  and  N1_10 
ROOT
ATOM      1  C1  LG1 d5015      43.995  17.396  46.955  0.00  0.00     0.056 A 
ATOM      2  C2  LG1 d5015      43.188  16.738  46.027  0.00  0.00    -0.033 A 
ATOM      3  C3  LG1 d5015      42.996  17.287  44.759  0.00  0.00     0.028 A 
ATOM      4  C4  LG1 d5015      43.610  18.491  44.419  0.00  0.00     0.012 A 
ATOM      5  C5  LG1 d5015      44.417  19.150  45.349  0.00  0.00     0.028 A 
ATOM      6  C6  LG1 d5015      44.609  18.601  46.615  0.00  0.00    -0.033 A 
ATOM      7  C7  LG1 d5015      45.479  19.329  47.589  0.00  0.00     0.050 C 
ATOM      8 BR1  LG1 d5015      43.347  19.235  42.701  0.00  0.00    -0.051 Br
ATOM      9  C8  LG1 d5015      42.518  15.445  46.361  0.00  0.00     0.050 C 
ENDROOT
BRANCH   1  10
ATOM     10  N1  LG1 d5015      44.195  16.831  48.260  0.00  0.00    -0.265 N 
ATOM     11  C11 LG1 d5015      45.201  15.917  48.572  0.00  0.00     0.148 C 
ATOM     12  S2  LG1 d5015      46.529  15.421  47.678  0.00  0.00    -0.052 SA
ATOM     13  S1  LG1 d5015      44.981  15.344  50.221  0.00  0.00    -0.090 SA
ATOM     14  C10 LG1 d5015      43.714  16.554  50.603  0.00  0.00     0.185 C 
ATOM     15  C9  LG1 d5015      43.326  17.191  49.300  0.00  0.00     0.239 C 
ATOM     16  O1  LG1 d5015      42.337  17.917  49.229  0.00  0.00    -0.272 OA
ENDBRANCH   1  10
TORSDOF 1
ENDMDL
MODEL 5
REMARK VINA RESULT:    -5.611      1.700      2.141
REMARK INTER + INTRA:          -6.071
REMARK INTER:                  -5.939
REMARK INTRA:                  -0.132
REMARK UNBOUND:                -0.132
REMARK  1 active torsions:
REMARK  status: ('A' for Active; 'I' for Inactive)
REMARK    1  A    between atoms: C1_1  and  N1_10 
ROOT
ATOM      1  C1  LG1 d5015      44.153  17.864  47.399  0.00  0.00     0.056 A 
ATOM      2  C2  LG1 d5015      44.962  18.099  46.288  0.00  0.00    -0.033 A 
ATOM      3  C3  LG1 d5015      44.660  19.146  45.415  0.00  0.00     0.028 A 
ATOM      4  C4  LG1 d5015      43.550  19.955  45.654  0.00  0.00     0.012 A 
ATOM      5  C5  LG1 d5015      42.740  19.719  46.766  0.00  0.00     0.028 A 
ATOM      6  C6  LG1 d5015      43.042  18.673  47.637  0.00  0.00    -0.033 A 
ATOM      7  C7  LG1 d5015      42.156  18.444  48.819  0.00  0.00     0.050 C 
ATOM      8 BR1  LG1 d5015      43.141  21.372  44.470  0.00  0.00    -0.051 Br
ATOM      9  C8  LG1 d5015      46.158  17.250  46.007  0.00  0.00     0.050 C 
ENDROOT
BRANCH   1  10
ATOM     10  N1  LG1 d5015      44.463  16.788  48.298  0.00  0.00    -0.265 N 
ATOM     11  C11 LG1 d5015      45.419  16.867  49.311  0.00  0.00     0.148 C 
ATOM     12  S2  LG1 d5015      46.255  18.189  49.912  0.00  0.00    -0.052 SA
ATOM     13  S1  LG1 d5015      45.614  15.284  50.055  0.00  0.00    -0.090 SA
ATOM     14  C10 LG1 d5015      44.196  14.578  49.214  0.00  0.00     0.185 C 
ATOM     15  C9  LG1 d5015      43.791  15.567  48.160  0.00  0.00     0.239 C 
ATOM     16  O1  LG1 d5015      42.970  15.259  47.297  0.00  0.00    -0.272 OA
ENDBRANCH   1  10
TORSDOF 1
ENDMDL
