REMARK INTER + INTRA:          -9.473
REMARK INTER:                  -9.020
REMARK INTRA:                  -0.453
REMARK UNBOUND:                -0.556
REMARK  2 active torsions:
REMARK  status: ('A' for Active; 'I' for Inactive)
REMARK    1  A    between atoms: C1_1  and  N1_15 
REMARK    2  A    between atoms: C7_9  and  C4_4 
ROOT
ATOM      1  C1  LG1 d5015      42.854  18.970  44.404  0.00  0.00     0.141 A 
ATOM      2  C2  LG1 d5015      41.868  18.724  43.448  0.00  0.00     0.187 A 
ATOM      3  C3  LG1 d5015      41.788  19.522  42.307  0.00  0.00     0.175 A 
ATOM      4  C4  LG1 d5015      42.693  20.566  42.121  0.00  0.00     0.131 A 
ATOM      5  C5  LG1 d5015      43.678  20.813  43.077  0.00  0.00     0.175 A 
ATOM      6  C6  LG1 d5015      43.759  20.015  44.217  0.00  0.00     0.187 A 
ATOM      7  F1  LG1 d5015      44.712  20.264  45.127  0.00  0.00    -0.200 F 
ATOM      8  F2  LG1 d5015      44.553  21.816  42.906  0.00  0.00    -0.202 F 
ATOM      9  F6  LG1 d5015      40.836  19.275  41.395  0.00  0.00    -0.202 F 
ATOM     10  F7  LG1 d5015      40.991  17.722  43.615  0.00  0.00    -0.200 F 
ENDROOT
BRANCH   1  11
ATOM     11  N1  LG1 d5015      42.934  18.180  45.536  0.00  0.00    -0.232 N 
ATOM     12  N2  LG1 d5015      43.510  16.967  45.464  0.00  0.00    -0.172 NA
ATOM     13  C10 LG1 d5015      43.406  16.509  46.714  0.00  0.00     0.053 A 
ATOM     14  C9  LG1 d5015      42.769  17.420  47.577  0.00  0.00     0.055 A 
ATOM     15  C11 LG1 d5015      43.937  15.176  47.050  0.00  0.00     0.072 C 
ATOM     16  C8  LG1 d5015      42.474  18.498  46.779  0.00  0.00     0.035 A 
ATOM     17  C12 LG1 d5015      41.808  19.775  47.100  0.00  0.00     0.070 C 
ENDBRANCH   1  11
BRANCH   4  18
ATOM     18  C7  LG1 d5015      42.605  21.420  40.901  0.00  0.00     0.423 C 
ATOM     19  F4  LG1 d5015      42.035  20.789  39.832  0.00  0.00    -0.166 F 
ATOM     20  F3  LG1 d5015      43.819  21.856  40.451  0.00  0.00    -0.166 F 
ATOM     21  F5  LG1 d5015      41.862  22.547  41.101  0.00  0.00    -0.166 F 
ENDBRANCH   4  18
TORSDOF 2
ENDMDL
