REMARK INTER + INTRA:          -8.119
REMARK INTER:                  -7.951
REMARK INTRA:                  -0.168
REMARK UNBOUND:                -0.153
REMARK  1 active torsions:
REMARK  status: ('A' for Active; 'I' for Inactive)
REMARK    1  A    between atoms: C10_13  and  C11_14 
ROOT
ATOM      1  C1  LG1 d5015      44.029  19.327  45.049  0.00  0.00     0.018 C 
ATOM      2  C2  LG1 d5015      44.647  18.335  45.965  0.00  0.00     0.193 C 
ATOM      3  C3  LG1 d5015      43.950  18.180  47.259  0.00  0.00     0.049 A 
ATOM      4  C4  LG1 d5015      44.492  17.362  48.252  0.00  0.00     0.037 A 
ATOM      5  C5  LG1 d5015      43.797  17.173  49.448  0.00  0.00     0.012 A 
ATOM      6  C6  LG1 d5015      42.561  17.789  49.647  0.00  0.00     0.022 A 
ATOM      7  C7  LG1 d5015      42.017  18.603  48.652  0.00  0.00     0.039 A 
ATOM      8  C8  LG1 d5015      42.718  18.813  47.464  0.00  0.00     0.083 A 
ATOM      9  O1  LG1 d5015      42.119  19.609  46.523  0.00  0.00    -0.346 OA
ATOM     10  C9  LG1 d5015      43.055  20.275  45.670  0.00  0.00     0.218 C 
ATOM     11 BR1  LG1 d5015      44.540  16.093  50.810  0.00  0.00    -0.051 Br
ATOM     12  O2  LG1 d5015      45.650  17.692  45.691  0.00  0.00    -0.287 OA
ATOM     13  C10 LG1 d5015      44.368  19.325  43.754  0.00  0.00     0.025 C 
ENDROOT
BRANCH  13  14
ATOM     14  C11 LG1 d5015      43.841  20.228  42.775  0.00  0.00    -0.029 A 
ATOM     15  C14 LG1 d5015      42.720  19.949  42.028  0.00  0.00     0.061 A 
ATOM     16  S1  LG1 d5015      42.336  21.219  40.945  0.00  0.00    -0.113 SA
ATOM     17  C13 LG1 d5015      43.672  22.149  41.476  0.00  0.00     0.050 A 
ATOM     18  C12 LG1 d5015      44.392  21.503  42.456  0.00  0.00     0.019 A 
ENDBRANCH  13  14
TORSDOF 1
ENDMDL
