REMARK INTER + INTRA:          -6.297
REMARK INTER:                  -6.090
REMARK INTRA:                  -0.207
REMARK UNBOUND:                -0.074
REMARK  1 active torsions:
REMARK  status: ('A' for Active; 'I' for Inactive)
REMARK    1  A    between atoms: C1_1  and  N1_10 
ROOT
ATOM      1  C1  LG1 d5015      43.947  17.390  46.971  0.00  0.00     0.056 A 
ATOM      2  C2  LG1 d5015      43.150  16.737  46.032  0.00  0.00    -0.033 A 
ATOM      3  C3  LG1 d5015      42.976  17.286  44.762  0.00  0.00     0.028 A 
ATOM      4  C4  LG1 d5015      43.600  18.488  44.430  0.00  0.00     0.012 A 
ATOM      5  C5  LG1 d5015      44.397  19.143  45.371  0.00  0.00     0.028 A 
ATOM      6  C6  LG1 d5015      44.570  18.594  46.640  0.00  0.00    -0.033 A 
ATOM      7  C7  LG1 d5015      45.430  19.318  47.625  0.00  0.00     0.050 C 
ATOM      8 BR1  LG1 d5015      43.362  19.233  42.709  0.00  0.00    -0.051 Br
ATOM      9  C8  LG1 d5015      42.470  15.446  46.358  0.00  0.00     0.050 C 
ENDROOT
BRANCH   1  10
ATOM     10  N1  LG1 d5015      44.128  16.825  48.278  0.00  0.00    -0.265 N 
ATOM     11  C11 LG1 d5015      45.131  15.912  48.605  0.00  0.00     0.148 C 
ATOM     12  S2  LG1 d5015      46.473  15.418  47.730  0.00  0.00    -0.052 SA
ATOM     13  S1  LG1 d5015      44.886  15.337  50.250  0.00  0.00    -0.090 SA
ATOM     14  C10 LG1 d5015      43.613  16.544  50.613  0.00  0.00     0.185 C 
ATOM     15  C9  LG1 d5015      43.243  17.182  49.305  0.00  0.00     0.239 C 
ATOM     16  O1  LG1 d5015      42.255  17.907  49.221  0.00  0.00    -0.272 OA
ENDBRANCH   1  10
TORSDOF 1
ENDMDL
