REMARK INTER + INTRA:          -8.363
REMARK INTER:                  -8.210
REMARK INTRA:                  -0.153
REMARK UNBOUND:                -0.081
REMARK  1 active torsions:
REMARK  status: ('A' for Active; 'I' for Inactive)
REMARK    1  A    between atoms: C10_13  and  C11_14 
ROOT
ATOM      1  C1  LG1 d5015      42.828  19.692  44.036  0.00  0.00     0.018 C 
ATOM      2  C2  LG1 d5015      42.923  19.743  45.516  0.00  0.00     0.193 C 
ATOM      3  C3  LG1 d5015      42.817  18.427  46.182  0.00  0.00     0.049 A 
ATOM      4  C4  LG1 d5015      42.778  18.348  47.575  0.00  0.00     0.037 A 
ATOM      5  C5  LG1 d5015      42.739  17.099  48.196  0.00  0.00     0.012 A 
ATOM      6  C6  LG1 d5015      42.749  15.933  47.431  0.00  0.00     0.022 A 
ATOM      7  C7  LG1 d5015      42.791  16.012  46.038  0.00  0.00     0.039 A 
ATOM      8  C8  LG1 d5015      42.808  17.258  45.411  0.00  0.00     0.083 A 
ATOM      9  O1  LG1 d5015      42.867  17.263  44.043  0.00  0.00    -0.346 OA
ATOM     10  C9  LG1 d5015      42.279  18.429  43.457  0.00  0.00     0.218 C 
ATOM     11 BR1  LG1 d5015      42.655  16.986  50.082  0.00  0.00    -0.051 Br
ATOM     12  O2  LG1 d5015      43.074  20.776  46.152  0.00  0.00    -0.287 OA
ATOM     13  C10 LG1 d5015      43.223  20.750  43.316  0.00  0.00     0.025 C 
ENDROOT
BRANCH  13  14
ATOM     14  C11 LG1 d5015      43.181  20.820  41.886  0.00  0.00    -0.029 A 
ATOM     15  C14 LG1 d5015      44.275  20.558  41.092  0.00  0.00     0.061 A 
ATOM     16  S1  LG1 d5015      43.915  20.723  39.427  0.00  0.00    -0.113 SA
ATOM     17  C13 LG1 d5015      42.291  21.145  39.764  0.00  0.00     0.050 A 
ATOM     18  C12 LG1 d5015      42.031  21.160  41.116  0.00  0.00     0.019 A 
ENDBRANCH  13  14
TORSDOF 1
ENDMDL
