REMARK INTER + INTRA:          -8.113
REMARK INTER:                  -7.944
REMARK INTRA:                  -0.169
REMARK UNBOUND:                -0.081
REMARK  1 active torsions:
REMARK  status: ('A' for Active; 'I' for Inactive)
REMARK    1  A    between atoms: C10_13  and  C11_14 
ROOT
ATOM      1  C1  LG1 d5015      44.043  19.330  45.022  0.00  0.00     0.018 C 
ATOM      2  C2  LG1 d5015      44.682  18.353  45.938  0.00  0.00     0.193 C 
ATOM      3  C3  LG1 d5015      43.988  18.183  47.232  0.00  0.00     0.049 A 
ATOM      4  C4  LG1 d5015      44.547  17.378  48.227  0.00  0.00     0.037 A 
ATOM      5  C5  LG1 d5015      43.856  17.175  49.422  0.00  0.00     0.012 A 
ATOM      6  C6  LG1 d5015      42.607  17.764  49.621  0.00  0.00     0.022 A 
ATOM      7  C7  LG1 d5015      42.047  18.565  48.625  0.00  0.00     0.039 A 
ATOM      8  C8  LG1 d5015      42.742  18.790  47.437  0.00  0.00     0.083 A 
ATOM      9  O1  LG1 d5015      42.127  19.572  46.496  0.00  0.00    -0.346 OA
ATOM     10  C9  LG1 d5015      43.049  20.258  45.642  0.00  0.00     0.218 C 
ATOM     11 BR1  LG1 d5015      44.623  16.111  50.785  0.00  0.00    -0.051 Br
ATOM     12  O2  LG1 d5015      45.698  17.732  45.665  0.00  0.00    -0.287 OA
ATOM     13  C10 LG1 d5015      44.382  19.336  43.727  0.00  0.00     0.025 C 
ENDROOT
BRANCH  13  14
ATOM     14  C11 LG1 d5015      43.836  20.227  42.748  0.00  0.00    -0.029 A 
ATOM     15  C14 LG1 d5015      42.720  19.923  41.999  0.00  0.00     0.061 A 
ATOM     16  S1  LG1 d5015      42.310  21.184  40.917  0.00  0.00    -0.113 SA
ATOM     17  C13 LG1 d5015      43.625  22.142  41.448  0.00  0.00     0.050 A 
ATOM     18  C12 LG1 d5015      44.360  21.514  42.429  0.00  0.00     0.019 A 
ENDBRANCH  13  14
TORSDOF 1
ENDMDL
