MODEL 1
REMARK VINA RESULT:    -5.988      0.000      0.000
REMARK INTER + INTRA:          -6.529
REMARK INTER:                  -6.329
REMARK INTRA:                  -0.200
REMARK UNBOUND:                -0.191
REMARK  1 active torsions:
REMARK  status: ('A' for Active; 'I' for Inactive)
REMARK    1  A    between atoms: C1_1  and  N1_10 
ROOT
ATOM      1  C1  LG1 d5015      43.957  18.082  47.289  0.00  0.00     0.056 A 
ATOM      2  C2  LG1 d5015      42.862  18.939  47.393  0.00  0.00    -0.033 A 
ATOM      3  C3  LG1 d5015      42.659  19.929  46.431  0.00  0.00     0.028 A 
ATOM      4  C4  LG1 d5015      43.550  20.063  45.367  0.00  0.00     0.012 A 
ATOM      5  C5  LG1 d5015      44.647  19.205  45.264  0.00  0.00     0.028 A 
ATOM      6  C6  LG1 d5015      44.849  18.216  46.225  0.00  0.00    -0.033 A 
ATOM      7  C7  LG1 d5015      46.033  17.313  46.088  0.00  0.00     0.050 C 
ATOM      8 BR1  LG1 d5015      43.274  21.406  44.066  0.00  0.00    -0.051 Br
ATOM      9  C8  LG1 d5015      41.889  18.820  48.520  0.00  0.00     0.050 C 
ENDROOT
BRANCH   1  10
ATOM     10  N1  LG1 d5015      44.166  17.062  48.278  0.00  0.00    -0.265 N 
ATOM     11  C11 LG1 d5015      43.647  15.770  48.191  0.00  0.00     0.148 C 
ATOM     12  S2  LG1 d5015      42.894  14.989  46.914  0.00  0.00    -0.052 SA
ATOM     13  S1  LG1 d5015      43.984  14.904  49.685  0.00  0.00    -0.090 SA
ATOM     14  C10 LG1 d5015      45.088  16.168  50.314  0.00  0.00     0.185 C 
ATOM     15  C9  LG1 d5015      44.923  17.362  49.419  0.00  0.00     0.239 C 
ATOM     16  O1  LG1 d5015      45.409  18.447  49.728  0.00  0.00    -0.272 OA
ENDBRANCH   1  10
TORSDOF 1
ENDMDL
MODEL 2
REMARK VINA RESULT:    -5.984      0.026      2.152
REMARK INTER + INTRA:          -6.525
REMARK INTER:                  -6.320
REMARK INTRA:                  -0.205
REMARK UNBOUND:                -0.191
REMARK  1 active torsions:
REMARK  status: ('A' for Active; 'I' for Inactive)
REMARK    1  A    between atoms: C1_1  and  N1_10 
ROOT
ATOM      1  C1  LG1 d5015      43.963  18.084  47.273  0.00  0.00     0.056 A 
ATOM      2  C2  LG1 d5015      44.851  18.224  46.207  0.00  0.00    -0.033 A 
ATOM      3  C3  LG1 d5015      44.643  19.220  45.252  0.00  0.00     0.028 A 
ATOM      4  C4  LG1 d5015      43.547  20.075  45.363  0.00  0.00     0.012 A 
ATOM      5  C5  LG1 d5015      42.657  19.934  46.430  0.00  0.00     0.028 A 
ATOM      6  C6  LG1 d5015      42.867  18.939  47.383  0.00  0.00    -0.033 A 
ATOM      7  C7  LG1 d5015      41.897  18.812  48.514  0.00  0.00     0.050 C 
ATOM      8 BR1  LG1 d5015      43.264  21.422  44.068  0.00  0.00    -0.051 Br
ATOM      9  C8  LG1 d5015      46.035  17.324  46.061  0.00  0.00     0.050 C 
ENDROOT
BRANCH   1  10
ATOM     10  N1  LG1 d5015      44.178  17.060  48.256  0.00  0.00    -0.265 N 
ATOM     11  C11 LG1 d5015      43.650  15.771  48.172  0.00  0.00     0.148 C 
ATOM     12  S2  LG1 d5015      42.880  14.997  46.902  0.00  0.00    -0.052 SA
ATOM     13  S1  LG1 d5015      44.000  14.899  49.661  0.00  0.00    -0.090 SA
ATOM     14  C10 LG1 d5015      45.117  16.156  50.280  0.00  0.00     0.185 C 
ATOM     15  C9  LG1 d5015      44.949  17.354  49.390  0.00  0.00     0.239 C 
ATOM     16  O1  LG1 d5015      45.444  18.435  49.697  0.00  0.00    -0.272 OA
ENDBRANCH   1  10
TORSDOF 1
ENDMDL
MODEL 3
REMARK VINA RESULT:    -5.755      1.937      2.424
REMARK INTER + INTRA:          -6.282
REMARK INTER:                  -6.077
REMARK INTRA:                  -0.205
REMARK UNBOUND:                -0.191
REMARK  1 active torsions:
REMARK  status: ('A' for Active; 'I' for Inactive)
REMARK    1  A    between atoms: C1_1  and  N1_10 
ROOT
ATOM      1  C1  LG1 d5015      43.955  17.405  46.973  0.00  0.00     0.056 A 
ATOM      2  C2  LG1 d5015      44.596  18.600  46.648  0.00  0.00    -0.033 A 
ATOM      3  C3  LG1 d5015      44.441  19.149  45.374  0.00  0.00     0.028 A 
ATOM      4  C4  LG1 d5015      43.647  18.504  44.428  0.00  0.00     0.012 A 
ATOM      5  C5  LG1 d5015      43.006  17.307  44.754  0.00  0.00     0.028 A 
ATOM      6  C6  LG1 d5015      43.161  16.759  46.026  0.00  0.00    -0.033 A 
ATOM      7  C7  LG1 d5015      42.462  15.477  46.346  0.00  0.00     0.050 C 
ATOM      8 BR1  LG1 d5015      43.439  19.248  42.702  0.00  0.00    -0.051 Br
ATOM      9  C8  LG1 d5015      45.453  19.316  47.641  0.00  0.00     0.050 C 
ENDROOT
BRANCH   1  10
ATOM     10  N1  LG1 d5015      44.113  16.840  48.284  0.00  0.00    -0.265 N 
ATOM     11  C11 LG1 d5015      45.108  15.924  48.626  0.00  0.00     0.148 C 
ATOM     12  S2  LG1 d5015      46.461  15.425  47.774  0.00  0.00    -0.052 SA
ATOM     13  S1  LG1 d5015      44.834  15.351  50.268  0.00  0.00    -0.090 SA
ATOM     14  C10 LG1 d5015      43.560  16.564  50.610  0.00  0.00     0.185 C 
ATOM     15  C9  LG1 d5015      43.213  17.202  49.297  0.00  0.00     0.239 C 
ATOM     16  O1  LG1 d5015      42.230  17.931  49.195  0.00  0.00    -0.272 OA
ENDBRANCH   1  10
TORSDOF 1
ENDMDL
MODEL 4
REMARK VINA RESULT:    -5.751      1.932      2.276
REMARK INTER + INTRA:          -6.278
REMARK INTER:                  -6.071
REMARK INTRA:                  -0.208
REMARK UNBOUND:                -0.191
REMARK  1 active torsions:
REMARK  status: ('A' for Active; 'I' for Inactive)
REMARK    1  A    between atoms: C1_1  and  N1_10 
ROOT
ATOM      1  C1  LG1 d5015      44.003  17.399  46.931  0.00  0.00     0.056 A 
ATOM      2  C2  LG1 d5015      43.184  16.753  46.005  0.00  0.00    -0.033 A 
ATOM      3  C3  LG1 d5015      42.999  17.302  44.736  0.00  0.00     0.028 A 
ATOM      4  C4  LG1 d5015      43.633  18.496  44.393  0.00  0.00     0.012 A 
ATOM      5  C5  LG1 d5015      44.452  19.142  45.320  0.00  0.00     0.028 A 
ATOM      6  C6  LG1 d5015      44.636  18.593  46.588  0.00  0.00    -0.033 A 
ATOM      7  C7  LG1 d5015      45.519  19.308  47.559  0.00  0.00     0.050 C 
ATOM      8 BR1  LG1 d5015      43.381  19.240  42.673  0.00  0.00    -0.051 Br
ATOM      9  C8  LG1 d5015      42.493  15.472  46.343  0.00  0.00     0.050 C 
ENDROOT
BRANCH   1  10
ATOM     10  N1  LG1 d5015      44.195  16.834  48.237  0.00  0.00    -0.265 N 
ATOM     11  C11 LG1 d5015      45.191  15.909  48.551  0.00  0.00     0.148 C 
ATOM     12  S2  LG1 d5015      46.513  15.396  47.658  0.00  0.00    -0.052 SA
ATOM     13  S1  LG1 d5015      44.962  15.340  50.200  0.00  0.00    -0.090 SA
ATOM     14  C10 LG1 d5015      43.710  16.565  50.579  0.00  0.00     0.185 C 
ATOM     15  C9  LG1 d5015      43.329  17.205  49.276  0.00  0.00     0.239 C 
ATOM     16  O1  LG1 d5015      42.350  17.943  49.203  0.00  0.00    -0.272 OA
ENDBRANCH   1  10
TORSDOF 1
ENDMDL
MODEL 5
REMARK VINA RESULT:    -5.485      1.997      2.353
REMARK INTER + INTRA:          -5.997
REMARK INTER:                  -5.806
REMARK INTRA:                  -0.191
REMARK UNBOUND:                -0.191
REMARK  1 active torsions:
REMARK  status: ('A' for Active; 'I' for Inactive)
REMARK    1  A    between atoms: C1_1  and  N1_10 
ROOT
ATOM      1  C1  LG1 d5015      44.123  17.519  46.885  0.00  0.00     0.056 A 
ATOM      2  C2  LG1 d5015      43.210  16.903  46.029  0.00  0.00    -0.033 A 
ATOM      3  C3  LG1 d5015      42.689  17.608  44.944  0.00  0.00     0.028 A 
ATOM      4  C4  LG1 d5015      43.080  18.926  44.714  0.00  0.00     0.012 A 
ATOM      5  C5  LG1 d5015      43.993  19.542  45.572  0.00  0.00     0.028 A 
ATOM      6  C6  LG1 d5015      44.514  18.838  46.656  0.00  0.00    -0.033 A 
ATOM      7  C7  LG1 d5015      45.490  19.524  47.556  0.00  0.00     0.050 C 
ATOM      8 BR1  LG1 d5015      42.371  19.880  43.244  0.00  0.00    -0.051 Br
ATOM      9  C8  LG1 d5015      42.773  15.491  46.248  0.00  0.00     0.050 C 
ENDROOT
BRANCH   1  10
ATOM     10  N1  LG1 d5015      44.662  16.794  48.001  0.00  0.00    -0.265 N 
ATOM     11  C11 LG1 d5015      44.070  16.750  49.264  0.00  0.00     0.148 C 
ATOM     12  S2  LG1 d5015      42.561  17.270  49.772  0.00  0.00    -0.052 SA
ATOM     13  S1  LG1 d5015      45.140  15.911  50.381  0.00  0.00    -0.090 SA
ATOM     14  C10 LG1 d5015      46.249  15.348  49.090  0.00  0.00     0.185 C 
ATOM     15  C9  LG1 d5015      45.865  16.092  47.844  0.00  0.00     0.239 C 
ATOM     16  O1  LG1 d5015      46.583  16.055  46.848  0.00  0.00    -0.272 OA
ENDBRANCH   1  10
TORSDOF 1
ENDMDL
