REMARK INTER + INTRA:          -6.267
REMARK INTER:                  -6.059
REMARK INTRA:                  -0.207
REMARK UNBOUND:                -0.082
REMARK  1 active torsions:
REMARK  status: ('A' for Active; 'I' for Inactive)
REMARK    1  A    between atoms: C1_1  and  N1_10 
ROOT
ATOM      1  C1  LG1 d5015      43.990  17.393  46.960  0.00  0.00     0.056 A 
ATOM      2  C2  LG1 d5015      44.600  18.602  46.623  0.00  0.00    -0.033 A 
ATOM      3  C3  LG1 d5015      44.401  19.155  45.358  0.00  0.00     0.028 A 
ATOM      4  C4  LG1 d5015      43.592  18.500  44.430  0.00  0.00     0.012 A 
ATOM      5  C5  LG1 d5015      42.983  17.289  44.766  0.00  0.00     0.028 A 
ATOM      6  C6  LG1 d5015      43.183  16.738  46.031  0.00  0.00    -0.033 A 
ATOM      7  C7  LG1 d5015      42.517  15.441  46.362  0.00  0.00     0.050 C 
ATOM      8 BR1  LG1 d5015      43.324  19.248  42.715  0.00  0.00    -0.051 Br
ATOM      9  C8  LG1 d5015      45.470  19.328  47.597  0.00  0.00     0.050 C 
ENDROOT
BRANCH   1  10
ATOM     10  N1  LG1 d5015      44.194  16.825  48.262  0.00  0.00    -0.265 N 
ATOM     11  C11 LG1 d5015      45.210  15.920  48.571  0.00  0.00     0.148 C 
ATOM     12  S2  LG1 d5015      46.544  15.442  47.677  0.00  0.00    -0.052 SA
ATOM     13  S1  LG1 d5015      44.993  15.336  50.216  0.00  0.00    -0.090 SA
ATOM     14  C10 LG1 d5015      43.714  16.531  50.603  0.00  0.00     0.185 C 
ATOM     15  C9  LG1 d5015      43.320  17.170  49.303  0.00  0.00     0.239 C 
ATOM     16  O1  LG1 d5015      42.325  17.886  49.234  0.00  0.00    -0.272 OA
ENDBRANCH   1  10
TORSDOF 1
ENDMDL
