MODEL 1
REMARK VINA RESULT:    -7.772      0.000      0.000
REMARK INTER + INTRA:          -8.380
REMARK INTER:                  -8.238
REMARK INTRA:                  -0.142
REMARK UNBOUND:                -0.153
REMARK  1 active torsions:
REMARK  status: ('A' for Active; 'I' for Inactive)
REMARK    1  A    between atoms: C10_13  and  C11_14 
ROOT
ATOM      1  C1  LG1 d5015      42.829  19.706  43.969  0.00  0.00     0.018 C 
ATOM      2  C2  LG1 d5015      42.906  19.763  45.451  0.00  0.00     0.193 C 
ATOM      3  C3  LG1 d5015      42.842  18.445  46.118  0.00  0.00     0.049 A 
ATOM      4  C4  LG1 d5015      42.791  18.368  47.512  0.00  0.00     0.037 A 
ATOM      5  C5  LG1 d5015      42.792  17.120  48.135  0.00  0.00     0.012 A 
ATOM      6  C6  LG1 d5015      42.853  15.953  47.373  0.00  0.00     0.022 A 
ATOM      7  C7  LG1 d5015      42.908  16.031  45.980  0.00  0.00     0.039 A 
ATOM      8  C8  LG1 d5015      42.885  17.275  45.351  0.00  0.00     0.083 A 
ATOM      9  O1  LG1 d5015      42.958  17.280  43.983  0.00  0.00    -0.346 OA
ATOM     10  C9  LG1 d5015      42.333  18.422  43.388  0.00  0.00     0.218 C 
ATOM     11 BR1  LG1 d5015      42.692  17.007  50.021  0.00  0.00    -0.051 Br
ATOM     12  O2  LG1 d5015      43.012  20.802  46.085  0.00  0.00    -0.287 OA
ATOM     13  C10 LG1 d5015      43.192  20.775  43.251  0.00  0.00     0.025 C 
ENDROOT
BRANCH  13  14
ATOM     14  C11 LG1 d5015      43.163  20.841  41.821  0.00  0.00    -0.029 A 
ATOM     15  C14 LG1 d5015      44.281  20.650  41.041  0.00  0.00     0.061 A 
ATOM     16  S1  LG1 d5015      43.932  20.789  39.371  0.00  0.00    -0.113 SA
ATOM     17  C13 LG1 d5015      42.280  21.105  39.687  0.00  0.00     0.050 A 
ATOM     18  C12 LG1 d5015      42.003  21.104  41.036  0.00  0.00     0.019 A 
ENDBRANCH  13  14
TORSDOF 1
ENDMDL
MODEL 2
REMARK VINA RESULT:    -7.526      1.917      2.582
REMARK INTER + INTRA:          -8.119
REMARK INTER:                  -7.951
REMARK INTRA:                  -0.168
REMARK UNBOUND:                -0.153
REMARK  1 active torsions:
REMARK  status: ('A' for Active; 'I' for Inactive)
REMARK    1  A    between atoms: C10_13  and  C11_14 
ROOT
ATOM      1  C1  LG1 d5015      44.029  19.327  45.049  0.00  0.00     0.018 C 
ATOM      2  C2  LG1 d5015      44.647  18.335  45.965  0.00  0.00     0.193 C 
ATOM      3  C3  LG1 d5015      43.950  18.180  47.259  0.00  0.00     0.049 A 
ATOM      4  C4  LG1 d5015      44.492  17.362  48.252  0.00  0.00     0.037 A 
ATOM      5  C5  LG1 d5015      43.797  17.173  49.448  0.00  0.00     0.012 A 
ATOM      6  C6  LG1 d5015      42.561  17.789  49.647  0.00  0.00     0.022 A 
ATOM      7  C7  LG1 d5015      42.017  18.603  48.652  0.00  0.00     0.039 A 
ATOM      8  C8  LG1 d5015      42.718  18.813  47.464  0.00  0.00     0.083 A 
ATOM      9  O1  LG1 d5015      42.119  19.609  46.523  0.00  0.00    -0.346 OA
ATOM     10  C9  LG1 d5015      43.055  20.275  45.670  0.00  0.00     0.218 C 
ATOM     11 BR1  LG1 d5015      44.540  16.093  50.810  0.00  0.00    -0.051 Br
ATOM     12  O2  LG1 d5015      45.650  17.692  45.691  0.00  0.00    -0.287 OA
ATOM     13  C10 LG1 d5015      44.368  19.325  43.754  0.00  0.00     0.025 C 
ENDROOT
BRANCH  13  14
ATOM     14  C11 LG1 d5015      43.841  20.228  42.775  0.00  0.00    -0.029 A 
ATOM     15  C14 LG1 d5015      42.720  19.949  42.028  0.00  0.00     0.061 A 
ATOM     16  S1  LG1 d5015      42.336  21.219  40.945  0.00  0.00    -0.113 SA
ATOM     17  C13 LG1 d5015      43.672  22.149  41.476  0.00  0.00     0.050 A 
ATOM     18  C12 LG1 d5015      44.392  21.503  42.456  0.00  0.00     0.019 A 
ENDBRANCH  13  14
TORSDOF 1
ENDMDL
MODEL 3
REMARK VINA RESULT:    -7.017      3.892      6.885
REMARK INTER + INTRA:          -7.580
REMARK INTER:                  -7.416
REMARK INTRA:                  -0.164
REMARK UNBOUND:                -0.153
REMARK  1 active torsions:
REMARK  status: ('A' for Active; 'I' for Inactive)
REMARK    1  A    between atoms: C10_13  and  C11_14 
ROOT
ATOM      1  C1  LG1 d5015      43.194  18.035  45.379  0.00  0.00     0.018 C 
ATOM      2  C2  LG1 d5015      42.936  18.008  43.917  0.00  0.00     0.193 C 
ATOM      3  C3  LG1 d5015      43.121  19.308  43.239  0.00  0.00     0.049 A 
ATOM      4  C4  LG1 d5015      42.802  19.444  41.886  0.00  0.00     0.037 A 
ATOM      5  C5  LG1 d5015      43.036  20.658  41.239  0.00  0.00     0.012 A 
ATOM      6  C6  LG1 d5015      43.595  21.730  41.935  0.00  0.00     0.022 A 
ATOM      7  C7  LG1 d5015      43.917  21.592  43.287  0.00  0.00     0.039 A 
ATOM      8  C8  LG1 d5015      43.665  20.388  43.944  0.00  0.00     0.083 A 
ATOM      9  O1  LG1 d5015      44.021  20.316  45.265  0.00  0.00    -0.346 OA
ATOM     10  C9  LG1 d5015      43.229  19.387  46.013  0.00  0.00     0.218 C 
ATOM     11 BR1  LG1 d5015      42.578  20.858  39.415  0.00  0.00    -0.051 Br
ATOM     12  O2  LG1 d5015      42.597  17.005  43.307  0.00  0.00    -0.287 OA
ATOM     13  C10 LG1 d5015      43.371  16.882  46.036  0.00  0.00     0.025 C 
ENDROOT
BRANCH  13  14
ATOM     14  C11 LG1 d5015      43.627  16.780  47.441  0.00  0.00    -0.029 A 
ATOM     15  C14 LG1 d5015      44.897  16.735  47.968  0.00  0.00     0.061 A 
ATOM     16  S1  LG1 d5015      44.881  16.613  49.676  0.00  0.00    -0.113 SA
ATOM     17  C13 LG1 d5015      43.170  16.621  49.715  0.00  0.00     0.050 A 
ATOM     18  C12 LG1 d5015      42.625  16.715  48.453  0.00  0.00     0.019 A 
ENDBRANCH  13  14
TORSDOF 1
ENDMDL
MODEL 4
REMARK VINA RESULT:    -6.856      4.090      6.790
REMARK INTER + INTRA:          -7.410
REMARK INTER:                  -7.323
REMARK INTRA:                  -0.087
REMARK UNBOUND:                -0.153
REMARK  1 active torsions:
REMARK  status: ('A' for Active; 'I' for Inactive)
REMARK    1  A    between atoms: C10_13  and  C11_14 
ROOT
ATOM      1  C1  LG1 d5015      43.895  18.997  46.677  0.00  0.00     0.018 C 
ATOM      2  C2  LG1 d5015      43.046  19.922  45.885  0.00  0.00     0.193 C 
ATOM      3  C3  LG1 d5015      43.339  19.932  44.436  0.00  0.00     0.049 A 
ATOM      4  C4  LG1 d5015      42.689  20.839  43.597  0.00  0.00     0.037 A 
ATOM      5  C5  LG1 d5015      42.926  20.801  42.222  0.00  0.00     0.012 A 
ATOM      6  C6  LG1 d5015      43.799  19.855  41.685  0.00  0.00     0.022 A 
ATOM      7  C7  LG1 d5015      44.446  18.946  42.524  0.00  0.00     0.039 A 
ATOM      8  C8  LG1 d5015      44.230  18.994  43.901  0.00  0.00     0.083 A 
ATOM      9  O1  LG1 d5015      44.883  18.062  44.664  0.00  0.00    -0.346 OA
ATOM     10  C9  LG1 d5015      45.134  18.504  46.002  0.00  0.00     0.218 C 
ATOM     11 BR1  LG1 d5015      42.072  22.047  41.083  0.00  0.00    -0.051 Br
ATOM     12  O2  LG1 d5015      42.174  20.627  46.371  0.00  0.00    -0.287 OA
ATOM     13  C10 LG1 d5015      43.523  18.665  47.919  0.00  0.00     0.025 C 
ENDROOT
BRANCH  13  14
ATOM     14  C11 LG1 d5015      44.255  17.784  48.778  0.00  0.00    -0.029 A 
ATOM     15  C14 LG1 d5015      43.840  16.504  49.064  0.00  0.00     0.061 A 
ATOM     16  S1  LG1 d5015      44.922  15.697  50.118  0.00  0.00    -0.113 SA
ATOM     17  C13 LG1 d5015      45.952  17.062  50.193  0.00  0.00     0.050 A 
ATOM     18  C12 LG1 d5015      45.480  18.107  49.431  0.00  0.00     0.019 A 
ENDBRANCH  13  14
TORSDOF 1
ENDMDL
MODEL 5
REMARK VINA RESULT:    -6.636      1.717      2.881
REMARK INTER + INTRA:          -7.177
REMARK INTER:                  -7.024
REMARK INTRA:                  -0.153
REMARK UNBOUND:                -0.153
REMARK  1 active torsions:
REMARK  status: ('A' for Active; 'I' for Inactive)
REMARK    1  A    between atoms: C10_13  and  C11_14 
ROOT
ATOM      1  C1  LG1 d5015      43.656  17.962  44.665  0.00  0.00     0.018 C 
ATOM      2  C2  LG1 d5015      43.264  16.863  45.582  0.00  0.00     0.193 C 
ATOM      3  C3  LG1 d5015      43.777  17.005  46.961  0.00  0.00     0.049 A 
ATOM      4  C4  LG1 d5015      43.574  15.984  47.892  0.00  0.00     0.037 A 
ATOM      5  C5  LG1 d5015      44.009  16.151  49.207  0.00  0.00     0.012 A 
ATOM      6  C6  LG1 d5015      44.635  17.336  49.596  0.00  0.00     0.022 A 
ATOM      7  C7  LG1 d5015      44.834  18.357  48.666  0.00  0.00     0.039 A 
ATOM      8  C8  LG1 d5015      44.422  18.187  47.344  0.00  0.00     0.083 A 
ATOM      9  O1  LG1 d5015      44.633  19.236  46.488  0.00  0.00    -0.346 OA
ATOM     10  C9  LG1 d5015      44.783  18.829  45.124  0.00  0.00     0.218 C 
ATOM     11 BR1  LG1 d5015      43.765  14.760  50.465  0.00  0.00    -0.051 Br
ATOM     12  O2  LG1 d5015      42.575  15.911  45.245  0.00  0.00    -0.287 OA
ATOM     13  C10 LG1 d5015      43.005  18.114  43.505  0.00  0.00     0.025 C 
ENDROOT
BRANCH  13  14
ATOM     14  C11 LG1 d5015      43.290  19.134  42.541  0.00  0.00    -0.029 A 
ATOM     15  C14 LG1 d5015      42.579  20.309  42.464  0.00  0.00     0.061 A 
ATOM     16  S1  LG1 d5015      43.154  21.328  41.213  0.00  0.00    -0.113 SA
ATOM     17  C13 LG1 d5015      44.359  20.196  40.771  0.00  0.00     0.050 A 
ATOM     18  C12 LG1 d5015      44.322  19.068  41.560  0.00  0.00     0.019 A 
ENDBRANCH  13  14
TORSDOF 1
ENDMDL
