REMARK INTER + INTRA:          -7.607
REMARK INTER:                  -7.446
REMARK INTRA:                  -0.162
REMARK UNBOUND:                -0.081
REMARK  1 active torsions:
REMARK  status: ('A' for Active; 'I' for Inactive)
REMARK    1  A    between atoms: C10_13  and  C11_14 
ROOT
ATOM      1  C1  LG1 d5015      43.223  18.124  45.042  0.00  0.00     0.018 C 
ATOM      2  C2  LG1 d5015      42.987  18.075  43.577  0.00  0.00     0.193 C 
ATOM      3  C3  LG1 d5015      43.304  19.330  42.863  0.00  0.00     0.049 A 
ATOM      4  C4  LG1 d5015      43.021  19.451  41.501  0.00  0.00     0.037 A 
ATOM      5  C5  LG1 d5015      43.378  20.617  40.822  0.00  0.00     0.012 A 
ATOM      6  C6  LG1 d5015      44.024  21.654  41.496  0.00  0.00     0.022 A 
ATOM      7  C7  LG1 d5015      44.310  21.530  42.857  0.00  0.00     0.039 A 
ATOM      8  C8  LG1 d5015      43.935  20.376  43.546  0.00  0.00     0.083 A 
ATOM      9  O1  LG1 d5015      44.261  20.314  44.875  0.00  0.00    -0.346 OA
ATOM     10  C9  LG1 d5015      43.374  19.487  45.635  0.00  0.00     0.218 C 
ATOM     11 BR1  LG1 d5015      42.970  20.800  38.984  0.00  0.00    -0.051 Br
ATOM     12  O2  LG1 d5015      42.566  17.088  42.991  0.00  0.00    -0.287 OA
ATOM     13  C10 LG1 d5015      43.280  16.982  45.737  0.00  0.00     0.025 C 
ENDROOT
BRANCH  13  14
ATOM     14  C11 LG1 d5015      43.502  16.901  47.150  0.00  0.00    -0.029 A 
ATOM     15  C14 LG1 d5015      44.749  16.709  47.701  0.00  0.00     0.061 A 
ATOM     16  S1  LG1 d5015      44.695  16.657  49.411  0.00  0.00    -0.113 SA
ATOM     17  C13 LG1 d5015      42.999  16.893  49.419  0.00  0.00     0.050 A 
ATOM     18  C12 LG1 d5015      42.488  17.008  48.146  0.00  0.00     0.019 A 
ENDBRANCH  13  14
TORSDOF 1
ENDMDL
