REMARK INTER + INTRA:          -7.618
REMARK INTER:                  -7.449
REMARK INTRA:                  -0.169
REMARK UNBOUND:                -0.120
REMARK  1 active torsions:
REMARK  status: ('A' for Active; 'I' for Inactive)
REMARK    1  A    between atoms: C10_13  and  C11_14 
ROOT
ATOM      1  C1  LG1 d5015      43.217  18.090  44.982  0.00  0.00     0.018 C 
ATOM      2  C2  LG1 d5015      42.964  18.067  43.519  0.00  0.00     0.193 C 
ATOM      3  C3  LG1 d5015      43.282  19.332  42.823  0.00  0.00     0.049 A 
ATOM      4  C4  LG1 d5015      42.984  19.478  41.467  0.00  0.00     0.037 A 
ATOM      5  C5  LG1 d5015      43.343  20.652  40.803  0.00  0.00     0.012 A 
ATOM      6  C6  LG1 d5015      44.006  21.672  41.486  0.00  0.00     0.022 A 
ATOM      7  C7  LG1 d5015      44.307  21.523  42.841  0.00  0.00     0.039 A 
ATOM      8  C8  LG1 d5015      43.931  20.361  43.515  0.00  0.00     0.083 A 
ATOM      9  O1  LG1 d5015      44.273  20.274  44.839  0.00  0.00    -0.346 OA
ATOM     10  C9  LG1 d5015      43.388  19.442  45.596  0.00  0.00     0.218 C 
ATOM     11 BR1  LG1 d5015      42.914  20.870  38.973  0.00  0.00    -0.051 Br
ATOM     12  O2  LG1 d5015      42.526  17.094  42.922  0.00  0.00    -0.287 OA
ATOM     13  C10 LG1 d5015      43.274  16.936  45.657  0.00  0.00     0.025 C 
ENDROOT
BRANCH  13  14
ATOM     14  C11 LG1 d5015      43.512  16.830  47.065  0.00  0.00    -0.029 A 
ATOM     15  C14 LG1 d5015      42.498  16.808  47.996  0.00  0.00     0.061 A 
ATOM     16  S1  LG1 d5015      43.096  16.671  49.594  0.00  0.00    -0.113 SA
ATOM     17  C13 LG1 d5015      44.716  16.642  49.044  0.00  0.00     0.050 A 
ATOM     18  C12 LG1 d5015      44.798  16.734  47.673  0.00  0.00     0.019 A 
ENDBRANCH  13  14
TORSDOF 1
ENDMDL
