REMARK INTER + INTRA:          -7.814
REMARK INTER:                  -7.676
REMARK INTRA:                  -0.137
REMARK UNBOUND:                -0.081
REMARK  1 active torsions:
REMARK  status: ('A' for Active; 'I' for Inactive)
REMARK    1  A    between atoms: C10_13  and  C11_14 
ROOT
ATOM      1  C1  LG1 d5015      42.824  19.328  45.457  0.00  0.00     0.018 C 
ATOM      2  C2  LG1 d5015      42.395  19.118  46.862  0.00  0.00     0.193 C 
ATOM      3  C3  LG1 d5015      43.025  17.959  47.528  0.00  0.00     0.049 A 
ATOM      4  C4  LG1 d5015      42.624  17.585  48.812  0.00  0.00     0.037 A 
ATOM      5  C5  LG1 d5015      43.266  16.527  49.457  0.00  0.00     0.012 A 
ATOM      6  C6  LG1 d5015      44.312  15.850  48.827  0.00  0.00     0.022 A 
ATOM      7  C7  LG1 d5015      44.715  16.227  47.545  0.00  0.00     0.039 A 
ATOM      8  C8  LG1 d5015      44.062  17.269  46.887  0.00  0.00     0.083 A 
ATOM      9  O1  LG1 d5015      44.519  17.597  45.638  0.00  0.00    -0.346 OA
ATOM     10  C9  LG1 d5015      43.511  18.174  44.802  0.00  0.00     0.218 C 
ATOM     11 BR1  LG1 d5015      42.707  15.996  51.184  0.00  0.00    -0.051 Br
ATOM     12  O2  LG1 d5015      41.587  19.832  47.438  0.00  0.00    -0.287 OA
ATOM     13  C10 LG1 d5015      42.578  20.503  44.863  0.00  0.00     0.025 C 
ENDROOT
BRANCH  13  14
ATOM     14  C11 LG1 d5015      42.944  20.824  43.516  0.00  0.00    -0.029 A 
ATOM     15  C14 LG1 d5015      42.176  20.473  42.429  0.00  0.00     0.061 A 
ATOM     16  S1  LG1 d5015      42.871  20.996  40.955  0.00  0.00    -0.113 SA
ATOM     17  C13 LG1 d5015      44.204  21.697  41.770  0.00  0.00     0.050 A 
ATOM     18  C12 LG1 d5015      44.119  21.534  43.134  0.00  0.00     0.019 A 
ENDBRANCH  13  14
TORSDOF 1
ENDMDL
