MODEL 1
REMARK VINA RESULT:    -7.824      0.000      0.000
REMARK INTER + INTRA:          -8.363
REMARK INTER:                  -8.210
REMARK INTRA:                  -0.153
REMARK UNBOUND:                -0.081
REMARK  1 active torsions:
REMARK  status: ('A' for Active; 'I' for Inactive)
REMARK    1  A    between atoms: C10_13  and  C11_14 
ROOT
ATOM      1  C1  LG1 d5015      42.828  19.692  44.036  0.00  0.00     0.018 C 
ATOM      2  C2  LG1 d5015      42.923  19.743  45.516  0.00  0.00     0.193 C 
ATOM      3  C3  LG1 d5015      42.817  18.427  46.182  0.00  0.00     0.049 A 
ATOM      4  C4  LG1 d5015      42.778  18.348  47.575  0.00  0.00     0.037 A 
ATOM      5  C5  LG1 d5015      42.739  17.099  48.196  0.00  0.00     0.012 A 
ATOM      6  C6  LG1 d5015      42.749  15.933  47.431  0.00  0.00     0.022 A 
ATOM      7  C7  LG1 d5015      42.791  16.012  46.038  0.00  0.00     0.039 A 
ATOM      8  C8  LG1 d5015      42.808  17.258  45.411  0.00  0.00     0.083 A 
ATOM      9  O1  LG1 d5015      42.867  17.263  44.043  0.00  0.00    -0.346 OA
ATOM     10  C9  LG1 d5015      42.279  18.429  43.457  0.00  0.00     0.218 C 
ATOM     11 BR1  LG1 d5015      42.655  16.986  50.082  0.00  0.00    -0.051 Br
ATOM     12  O2  LG1 d5015      43.074  20.776  46.152  0.00  0.00    -0.287 OA
ATOM     13  C10 LG1 d5015      43.223  20.750  43.316  0.00  0.00     0.025 C 
ENDROOT
BRANCH  13  14
ATOM     14  C11 LG1 d5015      43.181  20.820  41.886  0.00  0.00    -0.029 A 
ATOM     15  C14 LG1 d5015      44.275  20.558  41.092  0.00  0.00     0.061 A 
ATOM     16  S1  LG1 d5015      43.915  20.723  39.427  0.00  0.00    -0.113 SA
ATOM     17  C13 LG1 d5015      42.291  21.145  39.764  0.00  0.00     0.050 A 
ATOM     18  C12 LG1 d5015      42.031  21.160  41.116  0.00  0.00     0.019 A 
ENDBRANCH  13  14
TORSDOF 1
ENDMDL
MODEL 2
REMARK VINA RESULT:    -7.588      1.928      2.524
REMARK INTER + INTRA:          -8.113
REMARK INTER:                  -7.944
REMARK INTRA:                  -0.169
REMARK UNBOUND:                -0.081
REMARK  1 active torsions:
REMARK  status: ('A' for Active; 'I' for Inactive)
REMARK    1  A    between atoms: C10_13  and  C11_14 
ROOT
ATOM      1  C1  LG1 d5015      44.043  19.330  45.022  0.00  0.00     0.018 C 
ATOM      2  C2  LG1 d5015      44.682  18.353  45.938  0.00  0.00     0.193 C 
ATOM      3  C3  LG1 d5015      43.988  18.183  47.232  0.00  0.00     0.049 A 
ATOM      4  C4  LG1 d5015      44.547  17.378  48.227  0.00  0.00     0.037 A 
ATOM      5  C5  LG1 d5015      43.856  17.175  49.422  0.00  0.00     0.012 A 
ATOM      6  C6  LG1 d5015      42.607  17.764  49.621  0.00  0.00     0.022 A 
ATOM      7  C7  LG1 d5015      42.047  18.565  48.625  0.00  0.00     0.039 A 
ATOM      8  C8  LG1 d5015      42.742  18.790  47.437  0.00  0.00     0.083 A 
ATOM      9  O1  LG1 d5015      42.127  19.572  46.496  0.00  0.00    -0.346 OA
ATOM     10  C9  LG1 d5015      43.049  20.258  45.642  0.00  0.00     0.218 C 
ATOM     11 BR1  LG1 d5015      44.623  16.111  50.785  0.00  0.00    -0.051 Br
ATOM     12  O2  LG1 d5015      45.698  17.732  45.665  0.00  0.00    -0.287 OA
ATOM     13  C10 LG1 d5015      44.382  19.336  43.727  0.00  0.00     0.025 C 
ENDROOT
BRANCH  13  14
ATOM     14  C11 LG1 d5015      43.836  20.227  42.748  0.00  0.00    -0.029 A 
ATOM     15  C14 LG1 d5015      42.720  19.923  41.999  0.00  0.00     0.061 A 
ATOM     16  S1  LG1 d5015      42.310  21.184  40.917  0.00  0.00    -0.113 SA
ATOM     17  C13 LG1 d5015      43.625  22.142  41.448  0.00  0.00     0.050 A 
ATOM     18  C12 LG1 d5015      44.360  21.514  42.429  0.00  0.00     0.019 A 
ENDBRANCH  13  14
TORSDOF 1
ENDMDL
MODEL 3
REMARK VINA RESULT:    -7.306      1.586      2.011
REMARK INTER + INTRA:          -7.814
REMARK INTER:                  -7.676
REMARK INTRA:                  -0.137
REMARK UNBOUND:                -0.081
REMARK  1 active torsions:
REMARK  status: ('A' for Active; 'I' for Inactive)
REMARK    1  A    between atoms: C10_13  and  C11_14 
ROOT
ATOM      1  C1  LG1 d5015      42.824  19.328  45.457  0.00  0.00     0.018 C 
ATOM      2  C2  LG1 d5015      42.395  19.118  46.862  0.00  0.00     0.193 C 
ATOM      3  C3  LG1 d5015      43.025  17.959  47.528  0.00  0.00     0.049 A 
ATOM      4  C4  LG1 d5015      42.624  17.585  48.812  0.00  0.00     0.037 A 
ATOM      5  C5  LG1 d5015      43.266  16.527  49.457  0.00  0.00     0.012 A 
ATOM      6  C6  LG1 d5015      44.312  15.850  48.827  0.00  0.00     0.022 A 
ATOM      7  C7  LG1 d5015      44.715  16.227  47.545  0.00  0.00     0.039 A 
ATOM      8  C8  LG1 d5015      44.062  17.269  46.887  0.00  0.00     0.083 A 
ATOM      9  O1  LG1 d5015      44.519  17.597  45.638  0.00  0.00    -0.346 OA
ATOM     10  C9  LG1 d5015      43.511  18.174  44.802  0.00  0.00     0.218 C 
ATOM     11 BR1  LG1 d5015      42.707  15.996  51.184  0.00  0.00    -0.051 Br
ATOM     12  O2  LG1 d5015      41.587  19.832  47.438  0.00  0.00    -0.287 OA
ATOM     13  C10 LG1 d5015      42.578  20.503  44.863  0.00  0.00     0.025 C 
ENDROOT
BRANCH  13  14
ATOM     14  C11 LG1 d5015      42.944  20.824  43.516  0.00  0.00    -0.029 A 
ATOM     15  C14 LG1 d5015      42.176  20.473  42.429  0.00  0.00     0.061 A 
ATOM     16  S1  LG1 d5015      42.871  20.996  40.955  0.00  0.00    -0.113 SA
ATOM     17  C13 LG1 d5015      44.204  21.697  41.770  0.00  0.00     0.050 A 
ATOM     18  C12 LG1 d5015      44.119  21.534  43.134  0.00  0.00     0.019 A 
ENDBRANCH  13  14
TORSDOF 1
ENDMDL
MODEL 4
REMARK VINA RESULT:    -7.111      3.930      6.882
REMARK INTER + INTRA:          -7.607
REMARK INTER:                  -7.446
REMARK INTRA:                  -0.162
REMARK UNBOUND:                -0.081
REMARK  1 active torsions:
REMARK  status: ('A' for Active; 'I' for Inactive)
REMARK    1  A    between atoms: C10_13  and  C11_14 
ROOT
ATOM      1  C1  LG1 d5015      43.223  18.124  45.042  0.00  0.00     0.018 C 
ATOM      2  C2  LG1 d5015      42.987  18.075  43.577  0.00  0.00     0.193 C 
ATOM      3  C3  LG1 d5015      43.304  19.330  42.863  0.00  0.00     0.049 A 
ATOM      4  C4  LG1 d5015      43.021  19.451  41.501  0.00  0.00     0.037 A 
ATOM      5  C5  LG1 d5015      43.378  20.617  40.822  0.00  0.00     0.012 A 
ATOM      6  C6  LG1 d5015      44.024  21.654  41.496  0.00  0.00     0.022 A 
ATOM      7  C7  LG1 d5015      44.310  21.530  42.857  0.00  0.00     0.039 A 
ATOM      8  C8  LG1 d5015      43.935  20.376  43.546  0.00  0.00     0.083 A 
ATOM      9  O1  LG1 d5015      44.261  20.314  44.875  0.00  0.00    -0.346 OA
ATOM     10  C9  LG1 d5015      43.374  19.487  45.635  0.00  0.00     0.218 C 
ATOM     11 BR1  LG1 d5015      42.970  20.800  38.984  0.00  0.00    -0.051 Br
ATOM     12  O2  LG1 d5015      42.566  17.088  42.991  0.00  0.00    -0.287 OA
ATOM     13  C10 LG1 d5015      43.280  16.982  45.737  0.00  0.00     0.025 C 
ENDROOT
BRANCH  13  14
ATOM     14  C11 LG1 d5015      43.502  16.901  47.150  0.00  0.00    -0.029 A 
ATOM     15  C14 LG1 d5015      44.749  16.709  47.701  0.00  0.00     0.061 A 
ATOM     16  S1  LG1 d5015      44.695  16.657  49.411  0.00  0.00    -0.113 SA
ATOM     17  C13 LG1 d5015      42.999  16.893  49.419  0.00  0.00     0.050 A 
ATOM     18  C12 LG1 d5015      42.488  17.008  48.146  0.00  0.00     0.019 A 
ENDBRANCH  13  14
TORSDOF 1
ENDMDL
MODEL 5
REMARK VINA RESULT:    -6.912      4.084      6.779
REMARK INTER + INTRA:          -7.397
REMARK INTER:                  -7.316
REMARK INTRA:                  -0.081
REMARK UNBOUND:                -0.081
REMARK  1 active torsions:
REMARK  status: ('A' for Active; 'I' for Inactive)
REMARK    1  A    between atoms: C10_13  and  C11_14 
ROOT
ATOM      1  C1  LG1 d5015      43.867  18.962  46.689  0.00  0.00     0.018 C 
ATOM      2  C2  LG1 d5015      43.033  19.896  45.892  0.00  0.00     0.193 C 
ATOM      3  C3  LG1 d5015      43.324  19.892  44.443  0.00  0.00     0.049 A 
ATOM      4  C4  LG1 d5015      42.689  20.805  43.599  0.00  0.00     0.037 A 
ATOM      5  C5  LG1 d5015      42.924  20.754  42.224  0.00  0.00     0.012 A 
ATOM      6  C6  LG1 d5015      43.781  19.790  41.692  0.00  0.00     0.022 A 
ATOM      7  C7  LG1 d5015      44.413  18.876  42.536  0.00  0.00     0.039 A 
ATOM      8  C8  LG1 d5015      44.199  18.936  43.913  0.00  0.00     0.083 A 
ATOM      9  O1  LG1 d5015      44.838  17.998  44.681  0.00  0.00    -0.346 OA
ATOM     10  C9  LG1 d5015      45.097  18.444  46.017  0.00  0.00     0.218 C 
ATOM     11 BR1  LG1 d5015      42.090  22.007  41.078  0.00  0.00    -0.051 Br
ATOM     12  O2  LG1 d5015      42.173  20.618  46.375  0.00  0.00    -0.287 OA
ATOM     13  C10 LG1 d5015      43.491  18.643  47.934  0.00  0.00     0.025 C 
ENDROOT
BRANCH  13  14
ATOM     14  C11 LG1 d5015      44.209  17.755  48.798  0.00  0.00    -0.029 A 
ATOM     15  C14 LG1 d5015      43.766  16.488  49.103  0.00  0.00     0.061 A 
ATOM     16  S1  LG1 d5015      44.838  15.669  50.157  0.00  0.00    -0.113 SA
ATOM     17  C13 LG1 d5015      45.900  17.011  50.207  0.00  0.00     0.050 A 
ATOM     18  C12 LG1 d5015      45.447  18.058  49.438  0.00  0.00     0.019 A 
ENDBRANCH  13  14
TORSDOF 1
ENDMDL
