REMARK INTER + INTRA:          -9.942
REMARK INTER:                  -9.465
REMARK INTRA:                  -0.477
REMARK UNBOUND:                -0.556
REMARK  2 active torsions:
REMARK  status: ('A' for Active; 'I' for Inactive)
REMARK    1  A    between atoms: C1_1  and  N1_15 
REMARK    2  A    between atoms: C7_9  and  C4_4 
ROOT
ATOM      1  C1  LG1 d5015      42.919  19.311  43.650  0.00  0.00     0.141 A 
ATOM      2  C2  LG1 d5015      42.888  17.924  43.794  0.00  0.00     0.187 A 
ATOM      3  C3  LG1 d5015      42.860  17.356  45.067  0.00  0.00     0.175 A 
ATOM      4  C4  LG1 d5015      42.863  18.174  46.197  0.00  0.00     0.131 A 
ATOM      5  C5  LG1 d5015      42.894  19.561  46.053  0.00  0.00     0.175 A 
ATOM      6  C6  LG1 d5015      42.922  20.129  44.780  0.00  0.00     0.187 A 
ATOM      7  F1  LG1 d5015      42.952  21.464  44.657  0.00  0.00    -0.200 F 
ATOM      8  F2  LG1 d5015      42.898  20.355  47.134  0.00  0.00    -0.202 F 
ATOM      9  F6  LG1 d5015      42.829  16.020  45.195  0.00  0.00    -0.202 F 
ATOM     10  F7  LG1 d5015      42.884  17.125  42.717  0.00  0.00    -0.200 F 
ENDROOT
BRANCH   1  11
ATOM     11  N1  LG1 d5015      42.947  19.876  42.388  0.00  0.00    -0.232 N 
ATOM     12  N2  LG1 d5015      44.113  20.303  41.874  0.00  0.00    -0.172 NA
ATOM     13  C10 LG1 d5015      43.761  20.776  40.676  0.00  0.00     0.053 A 
ATOM     14  C9  LG1 d5015      42.381  20.652  40.426  0.00  0.00     0.055 A 
ATOM     15  C11 LG1 d5015      44.786  21.345  39.784  0.00  0.00     0.072 C 
ATOM     16  C8  LG1 d5015      41.879  20.062  41.561  0.00  0.00     0.035 A 
ATOM     17  C12 LG1 d5015      40.499  19.670  41.908  0.00  0.00     0.070 C 
ENDBRANCH   1  11
BRANCH   4  18
ATOM     18  C7  LG1 d5015      42.834  17.565  47.559  0.00  0.00     0.423 C 
ATOM     19  F4  LG1 d5015      42.348  16.289  47.577  0.00  0.00    -0.166 F 
ATOM     20  F3  LG1 d5015      42.060  18.253  48.449  0.00  0.00    -0.166 F 
ATOM     21  F5  LG1 d5015      44.072  17.494  48.129  0.00  0.00    -0.166 F 
ENDBRANCH   4  18
TORSDOF 2
ENDMDL
