REMARK INTER + INTRA:          -8.096
REMARK INTER:                  -7.928
REMARK INTRA:                  -0.168
REMARK UNBOUND:                -0.120
REMARK  1 active torsions:
REMARK  status: ('A' for Active; 'I' for Inactive)
REMARK    1  A    between atoms: C10_13  and  C11_14 
ROOT
ATOM      1  C1  LG1 d5015      44.039  19.316  45.060  0.00  0.00     0.018 C 
ATOM      2  C2  LG1 d5015      44.673  18.336  45.976  0.00  0.00     0.193 C 
ATOM      3  C3  LG1 d5015      43.976  18.167  47.269  0.00  0.00     0.049 A 
ATOM      4  C4  LG1 d5015      44.532  17.358  48.263  0.00  0.00     0.037 A 
ATOM      5  C5  LG1 d5015      43.838  17.156  49.457  0.00  0.00     0.012 A 
ATOM      6  C6  LG1 d5015      42.591  17.749  49.655  0.00  0.00     0.022 A 
ATOM      7  C7  LG1 d5015      42.035  18.554  48.660  0.00  0.00     0.039 A 
ATOM      8  C8  LG1 d5015      42.733  18.778  47.473  0.00  0.00     0.083 A 
ATOM      9  O1  LG1 d5015      42.122  19.564  46.532  0.00  0.00    -0.346 OA
ATOM     10  C9  LG1 d5015      43.048  20.247  45.680  0.00  0.00     0.218 C 
ATOM     11 BR1  LG1 d5015      44.599  16.088  50.820  0.00  0.00    -0.051 Br
ATOM     12  O2  LG1 d5015      45.687  17.711  45.704  0.00  0.00    -0.287 OA
ATOM     13  C10 LG1 d5015      44.380  19.322  43.766  0.00  0.00     0.025 C 
ENDROOT
BRANCH  13  14
ATOM     14  C11 LG1 d5015      43.838  20.216  42.787  0.00  0.00    -0.029 A 
ATOM     15  C14 LG1 d5015      42.724  19.917  42.036  0.00  0.00     0.061 A 
ATOM     16  S1  LG1 d5015      42.319  21.182  40.956  0.00  0.00    -0.113 SA
ATOM     17  C13 LG1 d5015      43.636  22.134  41.490  0.00  0.00     0.050 A 
ATOM     18  C12 LG1 d5015      44.367  21.502  42.471  0.00  0.00     0.019 A 
ENDBRANCH  13  14
TORSDOF 1
ENDMDL
