REMARK INTER + INTRA:          -6.278
REMARK INTER:                  -6.071
REMARK INTRA:                  -0.208
REMARK UNBOUND:                -0.191
REMARK  1 active torsions:
REMARK  status: ('A' for Active; 'I' for Inactive)
REMARK    1  A    between atoms: C1_1  and  N1_10 
ROOT
ATOM      1  C1  LG1 d5015      44.003  17.399  46.931  0.00  0.00     0.056 A 
ATOM      2  C2  LG1 d5015      43.184  16.753  46.005  0.00  0.00    -0.033 A 
ATOM      3  C3  LG1 d5015      42.999  17.302  44.736  0.00  0.00     0.028 A 
ATOM      4  C4  LG1 d5015      43.633  18.496  44.393  0.00  0.00     0.012 A 
ATOM      5  C5  LG1 d5015      44.452  19.142  45.320  0.00  0.00     0.028 A 
ATOM      6  C6  LG1 d5015      44.636  18.593  46.588  0.00  0.00    -0.033 A 
ATOM      7  C7  LG1 d5015      45.519  19.308  47.559  0.00  0.00     0.050 C 
ATOM      8 BR1  LG1 d5015      43.381  19.240  42.673  0.00  0.00    -0.051 Br
ATOM      9  C8  LG1 d5015      42.493  15.472  46.343  0.00  0.00     0.050 C 
ENDROOT
BRANCH   1  10
ATOM     10  N1  LG1 d5015      44.195  16.834  48.237  0.00  0.00    -0.265 N 
ATOM     11  C11 LG1 d5015      45.191  15.909  48.551  0.00  0.00     0.148 C 
ATOM     12  S2  LG1 d5015      46.513  15.396  47.658  0.00  0.00    -0.052 SA
ATOM     13  S1  LG1 d5015      44.962  15.340  50.200  0.00  0.00    -0.090 SA
ATOM     14  C10 LG1 d5015      43.710  16.565  50.579  0.00  0.00     0.185 C 
ATOM     15  C9  LG1 d5015      43.329  17.205  49.276  0.00  0.00     0.239 C 
ATOM     16  O1  LG1 d5015      42.350  17.943  49.203  0.00  0.00    -0.272 OA
ENDBRANCH   1  10
TORSDOF 1
ENDMDL
