REMARK INTER + INTRA:          -7.245
REMARK INTER:                  -7.162
REMARK INTRA:                  -0.084
REMARK UNBOUND:                -0.084
REMARK  1 active torsions:
REMARK  status: ('A' for Active; 'I' for Inactive)
REMARK    1  A    between atoms: C10_13  and  C11_14 
ROOT
ATOM      1  C1  LG1 d5015      43.601  17.965  44.541  0.00  0.00     0.018 C 
ATOM      2  C2  LG1 d5015      43.198  16.927  45.522  0.00  0.00     0.193 C 
ATOM      3  C3  LG1 d5015      43.734  17.131  46.884  0.00  0.00     0.049 A 
ATOM      4  C4  LG1 d5015      43.521  16.167  47.872  0.00  0.00     0.037 A 
ATOM      5  C5  LG1 d5015      43.979  16.395  49.170  0.00  0.00     0.012 A 
ATOM      6  C6  LG1 d5015      44.637  17.584  49.485  0.00  0.00     0.022 A 
ATOM      7  C7  LG1 d5015      44.847  18.549  48.498  0.00  0.00     0.039 A 
ATOM      8  C8  LG1 d5015      44.411  18.317  47.194  0.00  0.00     0.083 A 
ATOM      9  O1  LG1 d5015      44.633  19.312  46.279  0.00  0.00    -0.346 OA
ATOM     10  C9  LG1 d5015      44.755  18.829  44.937  0.00  0.00     0.218 C 
ATOM     11 BR1  LG1 d5015      43.721  15.080  50.505  0.00  0.00    -0.051 Br
ATOM     12  O2  LG1 d5015      42.483  15.975  45.246  0.00  0.00    -0.287 OA
ATOM     13  C10 LG1 d5015      42.937  18.069  43.383  0.00  0.00     0.025 C 
ENDROOT
BRANCH  13  14
ATOM     14  C11 LG1 d5015      43.231  19.028  42.361  0.00  0.00    -0.029 A 
ATOM     15  C14 LG1 d5015      42.432  20.120  42.108  0.00  0.00     0.061 A 
ATOM     16  S1  LG1 d5015      43.044  21.082  40.831  0.00  0.00    -0.113 SA
ATOM     17  C13 LG1 d5015      44.383  20.038  40.612  0.00  0.00     0.050 A 
ATOM     18  C12 LG1 d5015      44.362  18.980  41.495  0.00  0.00     0.019 A 
ENDBRANCH  13  14
TORSDOF 1
ENDMDL
