REMARK INTER + INTRA:          -9.382
REMARK INTER:                  -8.826
REMARK INTRA:                  -0.556
REMARK UNBOUND:                -0.556
REMARK  2 active torsions:
REMARK  status: ('A' for Active; 'I' for Inactive)
REMARK    1  A    between atoms: C1_1  and  N1_15 
REMARK    2  A    between atoms: C7_9  and  C4_4 
ROOT
ATOM      1  C1  LG1 d5015      43.271  18.291  45.915  0.00  0.00     0.141 A 
ATOM      2  C2  LG1 d5015      43.300  19.683  45.834  0.00  0.00     0.187 A 
ATOM      3  C3  LG1 d5015      42.921  20.321  44.653  0.00  0.00     0.175 A 
ATOM      4  C4  LG1 d5015      42.513  19.567  43.553  0.00  0.00     0.131 A 
ATOM      5  C5  LG1 d5015      42.485  18.176  43.633  0.00  0.00     0.175 A 
ATOM      6  C6  LG1 d5015      42.864  17.538  44.814  0.00  0.00     0.187 A 
ATOM      7  F1  LG1 d5015      42.831  16.199  44.877  0.00  0.00    -0.200 F 
ATOM      8  F2  LG1 d5015      42.095  17.442  42.580  0.00  0.00    -0.202 F 
ATOM      9  F6  LG1 d5015      42.951  21.661  44.586  0.00  0.00    -0.202 F 
ATOM     10  F7  LG1 d5015      43.690  20.421  46.884  0.00  0.00    -0.200 F 
ENDROOT
BRANCH   1  11
ATOM     11  N1  LG1 d5015      43.648  17.658  47.085  0.00  0.00    -0.232 N 
ATOM     12  N2  LG1 d5015      42.742  17.461  48.059  0.00  0.00    -0.172 NA
ATOM     13  C10 LG1 d5015      43.448  16.841  49.007  0.00  0.00     0.053 A 
ATOM     14  C9  LG1 d5015      44.794  16.643  48.643  0.00  0.00     0.055 A 
ATOM     15  C11 LG1 d5015      42.793  16.446  50.266  0.00  0.00     0.072 C 
ATOM     16  C8  LG1 d5015      44.891  17.186  47.385  0.00  0.00     0.035 A 
ATOM     17  C12 LG1 d5015      46.046  17.287  46.471  0.00  0.00     0.070 C 
ENDBRANCH   1  11
BRANCH   4  18
ATOM     18  C7  LG1 d5015      42.108  20.251  42.289  0.00  0.00     0.423 C 
ATOM     19  F4  LG1 d5015      42.843  19.871  41.203  0.00  0.00    -0.166 F 
ATOM     20  F3  LG1 d5015      42.225  21.610  42.342  0.00  0.00    -0.166 F 
ATOM     21  F5  LG1 d5015      40.807  20.008  41.955  0.00  0.00    -0.166 F 
ENDBRANCH   4  18
TORSDOF 2
ENDMDL
