REMARK INTER + INTRA:          -7.404
REMARK INTER:                  -7.360
REMARK INTRA:                  -0.044
REMARK UNBOUND:                -0.168
REMARK  1 active torsions:
REMARK  status: ('A' for Active; 'I' for Inactive)
REMARK    1  A    between atoms: C10_13  and  C11_14 
ROOT
ATOM      1  C1  LG1 d5015      43.859  18.923  46.708  0.00  0.00     0.018 C 
ATOM      2  C2  LG1 d5015      43.023  19.842  45.896  0.00  0.00     0.193 C 
ATOM      3  C3  LG1 d5015      43.343  19.847  44.453  0.00  0.00     0.049 A 
ATOM      4  C4  LG1 d5015      42.706  20.748  43.597  0.00  0.00     0.037 A 
ATOM      5  C5  LG1 d5015      42.970  20.706  42.228  0.00  0.00     0.012 A 
ATOM      6  C6  LG1 d5015      43.859  19.761  41.711  0.00  0.00     0.022 A 
ATOM      7  C7  LG1 d5015      44.492  18.859  42.567  0.00  0.00     0.039 A 
ATOM      8  C8  LG1 d5015      44.249  18.911  43.939  0.00  0.00     0.083 A 
ATOM      9  O1  LG1 d5015      44.891  17.985  44.719  0.00  0.00    -0.346 OA
ATOM     10  C9  LG1 d5015      45.113  18.433  46.060  0.00  0.00     0.218 C 
ATOM     11 BR1  LG1 d5015      42.135  21.944  41.067  0.00  0.00    -0.051 Br
ATOM     12  O2  LG1 d5015      42.138  20.545  46.362  0.00  0.00    -0.287 OA
ATOM     13  C10 LG1 d5015      43.464  18.594  47.944  0.00  0.00     0.025 C 
ENDROOT
BRANCH  13  14
ATOM     14  C11 LG1 d5015      44.183  17.720  48.821  0.00  0.00    -0.029 A 
ATOM     15  C14 LG1 d5015      43.717  16.475  49.182  0.00  0.00     0.061 A 
ATOM     16  S1  LG1 d5015      44.797  15.668  50.238  0.00  0.00    -0.113 SA
ATOM     17  C13 LG1 d5015      45.891  16.983  50.214  0.00  0.00     0.050 A 
ATOM     18  C12 LG1 d5015      45.443  18.014  49.418  0.00  0.00     0.019 A 
ENDBRANCH  13  14
TORSDOF 1
ENDMDL
