@<TRIPOS>MOLECULE
/home/danieldh/ScipionUserData/projects/dcoid_1a28/Runs/000072_ProtChemImportSmallMolecules/extra/decoys_1_1a28.pdb
 28 29 0 0 0
SMALL
GASTEIGER

@<TRIPOS>ATOM
      1 C1         22.9840    9.4140   60.7640 C.ar  501  LG1501501    0.1415
      2 C2         23.1410    8.6140   59.6320 C.ar  501  LG1501501    0.1872
      3 C3         23.4280    9.1990   58.3990 C.ar  501  LG1501501    0.1751
      4 C4         23.5570   10.5840   58.2970 C.ar  501  LG1501501    0.1307
      5 C5         23.3990   11.3840   59.4280 C.ar  501  LG1501501    0.1751
      6 C6         23.1130   10.7990   60.6610 C.ar  501  LG1501501    0.1872
      7 F1         22.9640   11.5810   61.7400 F     501  LG1501501   -0.2001
      8 F2         23.5210   12.7170   59.3390 F     501  LG1501501   -0.2017
      9 C7         23.8630   11.2090   56.9770 C.3   501  LG1501501    0.4229
     10 F3         25.0273   11.9229   56.9668 F     501  LG1501501   -0.1657
     11 F4         23.9896   10.3062   55.9605 F     501  LG1501501   -0.1657
     12 F5         22.8948   12.0821   56.5733 F     501  LG1501501   -0.1657
     13 F6         23.5780    8.4200   57.3170 F     501  LG1501501   -0.2017
     14 F7         23.0200    7.2810   59.7160 F     501  LG1501501   -0.2001
     15 N1         22.6990    8.8350   61.9870 N.ar  501  LG1501501   -0.2310
     16 C8         21.9892    9.4009   63.0035 C.ar  501  LG1501501    0.0423
     17 C9         21.9604    8.4649   64.0087 C.ar  501  LG1501501   -0.0179
     18 C10        22.6831    7.3728   63.4924 C.ar  501  LG1501501    0.0606
     19 C11        22.9647    6.0894   64.1574 C.3   501  LG1501501   -0.0206
     20 N2         23.1368    7.5932   62.2562 N.ar  501  LG1501501   -0.1713
     21 C12        21.4099   10.7574   62.9397 C.3   501  LG1501501   -0.0222
     22 H1         21.4853    8.5612   64.9744 H     501  LG1501501    0.0654
     23 H2         22.1730    5.3484   63.9514 H     501  LG1501501    0.0293
     24 H3         23.9225    5.6515   63.8295 H     501  LG1501501    0.0293
     25 H4         23.0418    6.1964   65.2540 H     501  LG1501501    0.0293
     26 H5         22.1224   11.5120   63.3103 H     501  LG1501501    0.0293
     27 H6         21.1282   11.0390   61.9107 H     501  LG1501501    0.0293
     28 H7         20.4877   10.8425   63.5413 H     501  LG1501501    0.0293
@<TRIPOS>BOND
     1    11     9    1
     2    10     9    1
     3     9    12    1
     4     9     4    1
     5    13     3    1
     6     4     3   ar
     7     4     5   ar
     8     3     2   ar
     9     8     5    1
    10     5     6   ar
    11     2    14    1
    12     2     1   ar
    13     6     1   ar
    14     6     7    1
    15     1    15    1
    16    27    21    1
    17    15    20   ar
    18    15    16   ar
    19    20    18   ar
    20    21    16    1
    21    21    26    1
    22    21    28    1
    23    16    17   ar
    24    18    17   ar
    25    18    19    1
    26    17    22    1
    27    23    19    1
    28    24    19    1
    29    19    25    1
