REMARK INTER + INTRA:          -5.455
REMARK INTER:                  -5.344
REMARK INTRA:                  -0.112
REMARK UNBOUND:                -0.101
REMARK  3 active torsions:
REMARK  status: ('A' for Active; 'I' for Inactive)
REMARK    1  A    between atoms: C3_3  and  S1_15 
REMARK    2  A    between atoms: C6_6  and  C7_7 
REMARK    3  A    between atoms: S1_15  and  N1_10 
ROOT
ATOM      1  C1  <0> d  11     -20.855  15.354 -11.635  0.00  0.00     0.020 A 
ATOM      2  C2  <0> d  11     -19.910  16.284 -11.254  0.00  0.00     0.026 A 
ATOM      3  C3  <0> d  11     -18.570  15.943 -11.228  0.00  0.00     0.079 A 
ATOM      4  C4  <0> d  11     -18.168  14.666 -11.578  0.00  0.00     0.026 A 
ATOM      5  C5  <0> d  11     -19.102  13.724 -11.956  0.00  0.00     0.020 A 
ATOM      6  C6  <0> d  11     -20.456  14.062 -11.984  0.00  0.00     0.040 A 
ENDROOT
BRANCH   3   7
ATOM      7  S1  <0> d  11     -17.369  17.139 -10.747  0.00  0.00     0.256 S 
ATOM      8  O2  <0> d  11     -17.950  18.415 -10.985  0.00  0.00    -0.201 OA
ATOM      9  O3  <0> d  11     -16.893  16.746  -9.467  0.00  0.00    -0.201 OA
BRANCH   7  10
ATOM     10  N1  <0> d  11     -16.093  16.998 -11.791  0.00  0.00    -0.324 N 
ATOM     11  H5  <0> d  11     -15.576  17.783 -12.034  0.00  0.00     0.169 HD
ATOM     12  H6  <0> d  11     -15.861  16.132 -12.161  0.00  0.00     0.169 HD
ENDBRANCH   7  10
ENDBRANCH   3   7
BRANCH   6  13
ATOM     13  C7  <0> d  11     -21.463  13.058 -12.388  0.00  0.00     0.209 C 
ATOM     14  O1  <0> d  11     -22.558  13.417 -12.772  0.00  0.00    -0.644 OA
ATOM     15  O4  <0> d  11     -21.165  11.745 -12.333  0.00  0.00    -0.644 OA
ENDBRANCH   6  13
TORSDOF 3
ENDMDL
