MODEL 1
REMARK VINA RESULT:    -4.714      0.000      0.000
REMARK INTER + INTRA:          -5.504
REMARK INTER:                  -5.392
REMARK INTRA:                  -0.112
REMARK UNBOUND:                -0.101
REMARK  3 active torsions:
REMARK  status: ('A' for Active; 'I' for Inactive)
REMARK    1  A    between atoms: C3_3  and  S1_15 
REMARK    2  A    between atoms: C6_6  and  C7_7 
REMARK    3  A    between atoms: S1_15  and  N1_10 
ROOT
ATOM      1  C1  <0> d  11     -19.840  16.602 -11.409  0.00  0.00     0.020 A 
ATOM      2  C2  <0> d  11     -20.808  15.635 -11.586  0.00  0.00     0.026 A 
ATOM      3  C3  <0> d  11     -20.445  14.314 -11.774  0.00  0.00     0.079 A 
ATOM      4  C4  <0> d  11     -19.109  13.952 -11.788  0.00  0.00     0.026 A 
ATOM      5  C5  <0> d  11     -18.130  14.908 -11.617  0.00  0.00     0.020 A 
ATOM      6  C6  <0> d  11     -18.490  16.244 -11.428  0.00  0.00     0.040 A 
ENDROOT
BRANCH   3   7
ATOM      7  S1  <0> d  11     -21.689  13.085 -11.993  0.00  0.00     0.256 S 
ATOM      8  O2  <0> d  11     -21.113  12.063 -12.795  0.00  0.00    -0.201 OA
ATOM      9  O3  <0> d  11     -22.236  12.826 -10.707  0.00  0.00    -0.201 OA
BRANCH   7  10
ATOM     10  N1  <0> d  11     -22.898  13.769 -12.893  0.00  0.00    -0.324 N 
ATOM     11  H5  <0> d  11     -22.679  14.370 -13.622  0.00  0.00     0.169 HD
ATOM     12  H6  <0> d  11     -23.825  13.567 -12.693  0.00  0.00     0.169 HD
ENDBRANCH   7  10
ENDBRANCH   3   7
BRANCH   6  13
ATOM     13  C7  <0> d  11     -17.446  17.274 -11.244  0.00  0.00     0.209 C 
ATOM     14  O1  <0> d  11     -16.300  17.043 -11.573  0.00  0.00    -0.644 OA
ATOM     15  O4  <0> d  11     -17.767  18.470 -10.716  0.00  0.00    -0.644 OA
ENDBRANCH   6  13
TORSDOF 3
ENDMDL
MODEL 2
REMARK VINA RESULT:    -4.686      2.705      3.325
REMARK INTER + INTRA:          -5.472
REMARK INTER:                  -5.359
REMARK INTRA:                  -0.113
REMARK UNBOUND:                -0.101
REMARK  3 active torsions:
REMARK  status: ('A' for Active; 'I' for Inactive)
REMARK    1  A    between atoms: C3_3  and  S1_15 
REMARK    2  A    between atoms: C6_6  and  C7_7 
REMARK    3  A    between atoms: S1_15  and  N1_10 
ROOT
ATOM      1  C1  <0> d  11     -19.627  12.957  -9.824  0.00  0.00     0.020 A 
ATOM      2  C2  <0> d  11     -20.526  11.916  -9.925  0.00  0.00     0.026 A 
ATOM      3  C3  <0> d  11     -21.105  11.614 -11.144  0.00  0.00     0.079 A 
ATOM      4  C4  <0> d  11     -20.790  12.355 -12.270  0.00  0.00     0.026 A 
ATOM      5  C5  <0> d  11     -19.896  13.403 -12.182  0.00  0.00     0.020 A 
ATOM      6  C6  <0> d  11     -19.310  13.713 -10.954  0.00  0.00     0.040 A 
ENDROOT
BRANCH   3   7
ATOM      7  S1  <0> d  11     -22.247  10.278 -11.266  0.00  0.00     0.256 S 
ATOM      8  O2  <0> d  11     -23.523  10.855 -11.505  0.00  0.00    -0.201 OA
ATOM      9  O3  <0> d  11     -21.665   9.324 -12.146  0.00  0.00    -0.201 OA
BRANCH   7  10
ATOM     10  N1  <0> d  11     -22.323   9.562  -9.776  0.00  0.00    -0.324 N 
ATOM     11  H5  <0> d  11     -22.813   8.732  -9.661  0.00  0.00     0.169 HD
ATOM     12  H6  <0> d  11     -21.877   9.970  -9.018  0.00  0.00     0.169 HD
ENDBRANCH   7  10
ENDBRANCH   3   7
BRANCH   6  13
ATOM     13  C7  <0> d  11     -18.351  14.834 -10.852  0.00  0.00     0.209 C 
ATOM     14  O1  <0> d  11     -18.017  15.439 -11.851  0.00  0.00    -0.644 OA
ATOM     15  O4  <0> d  11     -17.853  15.187  -9.652  0.00  0.00    -0.644 OA
ENDBRANCH   6  13
TORSDOF 3
ENDMDL
MODEL 3
REMARK VINA RESULT:    -4.672      2.891      5.303
REMARK INTER + INTRA:          -5.457
REMARK INTER:                  -5.345
REMARK INTRA:                  -0.112
REMARK UNBOUND:                -0.101
REMARK  3 active torsions:
REMARK  status: ('A' for Active; 'I' for Inactive)
REMARK    1  A    between atoms: C3_3  and  S1_15 
REMARK    2  A    between atoms: C6_6  and  C7_7 
REMARK    3  A    between atoms: S1_15  and  N1_10 
ROOT
ATOM      1  C1  <0> d  11     -20.837  15.364 -11.646  0.00  0.00     0.020 A 
ATOM      2  C2  <0> d  11     -19.897  16.300 -11.264  0.00  0.00     0.026 A 
ATOM      3  C3  <0> d  11     -18.556  15.963 -11.232  0.00  0.00     0.079 A 
ATOM      4  C4  <0> d  11     -18.147  14.687 -11.577  0.00  0.00     0.026 A 
ATOM      5  C5  <0> d  11     -19.076  13.740 -11.956  0.00  0.00     0.020 A 
ATOM      6  C6  <0> d  11     -20.431  14.073 -11.990  0.00  0.00     0.040 A 
ENDROOT
BRANCH   3   7
ATOM      7  S1  <0> d  11     -17.361  17.166 -10.749  0.00  0.00     0.256 S 
ATOM      8  O2  <0> d  11     -17.949  18.438 -10.985  0.00  0.00    -0.201 OA
ATOM      9  O3  <0> d  11     -16.882  16.773  -9.470  0.00  0.00    -0.201 OA
BRANCH   7  10
ATOM     10  N1  <0> d  11     -16.084  17.033 -11.794  0.00  0.00    -0.324 N 
ATOM     11  H5  <0> d  11     -15.917  16.193 -12.250  0.00  0.00     0.169 HD
ATOM     12  H6  <0> d  11     -15.504  17.794 -11.950  0.00  0.00     0.169 HD
ENDBRANCH   7  10
ENDBRANCH   3   7
BRANCH   6  13
ATOM     13  C7  <0> d  11     -21.433  13.064 -12.395  0.00  0.00     0.209 C 
ATOM     14  O1  <0> d  11     -22.534  13.417 -12.766  0.00  0.00    -0.644 OA
ATOM     15  O4  <0> d  11     -21.122  11.755 -12.357  0.00  0.00    -0.644 OA
ENDBRANCH   6  13
TORSDOF 3
ENDMDL
MODEL 4
REMARK VINA RESULT:    -4.642      2.510      3.297
REMARK INTER + INTRA:          -5.421
REMARK INTER:                  -5.312
REMARK INTRA:                  -0.110
REMARK UNBOUND:                -0.101
REMARK  3 active torsions:
REMARK  status: ('A' for Active; 'I' for Inactive)
REMARK    1  A    between atoms: C3_3  and  S1_15 
REMARK    2  A    between atoms: C6_6  and  C7_7 
REMARK    3  A    between atoms: S1_15  and  N1_10 
ROOT
ATOM      1  C1  <0> d  11     -20.609  15.506 -11.478  0.00  0.00     0.020 A 
ATOM      2  C2  <0> d  11     -21.928  15.693 -11.836  0.00  0.00     0.026 A 
ATOM      3  C3  <0> d  11     -22.674  14.632 -12.317  0.00  0.00     0.079 A 
ATOM      4  C4  <0> d  11     -22.103  13.378 -12.446  0.00  0.00     0.026 A 
ATOM      5  C5  <0> d  11     -20.784  13.178 -12.097  0.00  0.00     0.020 A 
ATOM      6  C6  <0> d  11     -20.025  14.245 -11.612  0.00  0.00     0.040 A 
ENDROOT
BRANCH   3   7
ATOM      7  S1  <0> d  11     -24.361  14.878 -12.765  0.00  0.00     0.256 S 
ATOM      8  O2  <0> d  11     -25.092  13.798 -12.201  0.00  0.00    -0.201 OA
ATOM      9  O3  <0> d  11     -24.664  16.236 -12.476  0.00  0.00    -0.201 OA
BRANCH   7  10
ATOM     10  N1  <0> d  11     -24.459  14.710 -14.408  0.00  0.00    -0.324 N 
ATOM     11  H5  <0> d  11     -24.633  13.838 -14.797  0.00  0.00     0.169 HD
ATOM     12  H6  <0> d  11     -24.344  15.482 -14.983  0.00  0.00     0.169 HD
ENDBRANCH   7  10
ENDBRANCH   3   7
BRANCH   6  13
ATOM     13  C7  <0> d  11     -18.610  14.038 -11.236  0.00  0.00     0.209 C 
ATOM     14  O1  <0> d  11     -17.793  14.912 -11.444  0.00  0.00    -0.644 OA
ATOM     15  O4  <0> d  11     -18.229  12.883 -10.660  0.00  0.00    -0.644 OA
ENDBRANCH   6  13
TORSDOF 3
ENDMDL
MODEL 5
REMARK VINA RESULT:    -4.545      3.260      5.836
REMARK INTER + INTRA:          -5.310
REMARK INTER:                  -5.209
REMARK INTRA:                  -0.101
REMARK UNBOUND:                -0.101
REMARK  3 active torsions:
REMARK  status: ('A' for Active; 'I' for Inactive)
REMARK    1  A    between atoms: C3_3  and  S1_15 
REMARK    2  A    between atoms: C6_6  and  C7_7 
REMARK    3  A    between atoms: S1_15  and  N1_10 
ROOT
ATOM      1  C1  <0> d  11     -21.378  12.282 -12.333  0.00  0.00     0.020 A 
ATOM      2  C2  <0> d  11     -20.608  13.419 -12.192  0.00  0.00     0.026 A 
ATOM      3  C3  <0> d  11     -19.724  13.532 -11.135  0.00  0.00     0.079 A 
ATOM      4  C4  <0> d  11     -19.607  12.511 -10.209  0.00  0.00     0.026 A 
ATOM      5  C5  <0> d  11     -20.374  11.371 -10.334  0.00  0.00     0.020 A 
ATOM      6  C6  <0> d  11     -21.269  11.250 -11.398  0.00  0.00     0.040 A 
ENDROOT
BRANCH   3   7
ATOM      7  S1  <0> d  11     -18.739  14.984 -10.968  0.00  0.00     0.256 S 
ATOM      8  O2  <0> d  11     -17.580  14.782 -11.764  0.00  0.00    -0.201 OA
ATOM      9  O3  <0> d  11     -19.611  16.091 -11.158  0.00  0.00    -0.201 OA
BRANCH   7  10
ATOM     10  N1  <0> d  11     -18.228  15.050  -9.394  0.00  0.00    -0.324 N 
ATOM     11  H5  <0> d  11     -18.878  15.052  -8.674  0.00  0.00     0.169 HD
ATOM     12  H6  <0> d  11     -17.280  15.085  -9.193  0.00  0.00     0.169 HD
ENDBRANCH   7  10
ENDBRANCH   3   7
BRANCH   6  13
ATOM     13  C7  <0> d  11     -22.095  10.032 -11.539  0.00  0.00     0.209 C 
ATOM     14  O1  <0> d  11     -21.623   9.034 -12.043  0.00  0.00    -0.644 OA
ATOM     15  O4  <0> d  11     -23.368  10.029 -11.102  0.00  0.00    -0.644 OA
ENDBRANCH   6  13
TORSDOF 3
ENDMDL
