REMARK INTER + INTRA:          -5.310
REMARK INTER:                  -5.209
REMARK INTRA:                  -0.101
REMARK UNBOUND:                -0.101
REMARK  3 active torsions:
REMARK  status: ('A' for Active; 'I' for Inactive)
REMARK    1  A    between atoms: C3_3  and  S1_15 
REMARK    2  A    between atoms: C6_6  and  C7_7 
REMARK    3  A    between atoms: S1_15  and  N1_10 
ROOT
ATOM      1  C1  <0> d  11     -21.378  12.282 -12.333  0.00  0.00     0.020 A 
ATOM      2  C2  <0> d  11     -20.608  13.419 -12.192  0.00  0.00     0.026 A 
ATOM      3  C3  <0> d  11     -19.724  13.532 -11.135  0.00  0.00     0.079 A 
ATOM      4  C4  <0> d  11     -19.607  12.511 -10.209  0.00  0.00     0.026 A 
ATOM      5  C5  <0> d  11     -20.374  11.371 -10.334  0.00  0.00     0.020 A 
ATOM      6  C6  <0> d  11     -21.269  11.250 -11.398  0.00  0.00     0.040 A 
ENDROOT
BRANCH   3   7
ATOM      7  S1  <0> d  11     -18.739  14.984 -10.968  0.00  0.00     0.256 S 
ATOM      8  O2  <0> d  11     -17.580  14.782 -11.764  0.00  0.00    -0.201 OA
ATOM      9  O3  <0> d  11     -19.611  16.091 -11.158  0.00  0.00    -0.201 OA
BRANCH   7  10
ATOM     10  N1  <0> d  11     -18.228  15.050  -9.394  0.00  0.00    -0.324 N 
ATOM     11  H5  <0> d  11     -18.878  15.052  -8.674  0.00  0.00     0.169 HD
ATOM     12  H6  <0> d  11     -17.280  15.085  -9.193  0.00  0.00     0.169 HD
ENDBRANCH   7  10
ENDBRANCH   3   7
BRANCH   6  13
ATOM     13  C7  <0> d  11     -22.095  10.032 -11.539  0.00  0.00     0.209 C 
ATOM     14  O1  <0> d  11     -21.623   9.034 -12.043  0.00  0.00    -0.644 OA
ATOM     15  O4  <0> d  11     -23.368  10.029 -11.102  0.00  0.00    -0.644 OA
ENDBRANCH   6  13
TORSDOF 3
ENDMDL
