REMARK INTER + INTRA:          -6.754
REMARK INTER:                  -6.105
REMARK INTRA:                  -0.648
REMARK UNBOUND:                -0.631
REMARK  2 active torsions:
REMARK  status: ('A' for Active; 'I' for Inactive)
REMARK    1  A    between atoms: C4_4  and  C6_6 
REMARK    2  A    between atoms: C6_6  and  N1_20 
ROOT
ATOM      1  C7  <0> d  11     -20.130  14.107 -10.833  0.00  0.00     0.052 A 
ATOM      2  C8  <0> d  11     -19.452  15.036 -11.605  0.00  0.00     0.031 A 
ATOM      3  C9  <0> d  11     -18.484  15.841 -11.030  0.00  0.00     0.002 A 
ATOM      4  C10 <0> d  11     -18.187  15.725  -9.686  0.00  0.00     0.002 A 
ATOM      5  C11 <0> d  11     -18.859  14.800  -8.903  0.00  0.00     0.021 A 
ATOM      6  C12 <0> d  11     -19.826  13.995  -9.473  0.00  0.00     0.032 A 
ATOM      7  C13 <0> d  11     -21.108  11.571  -9.695  0.00  0.00     0.032 A 
ATOM      8  C14 <0> d  11     -21.268  11.951 -11.031  0.00  0.00     0.052 A 
ATOM      9  C15 <0> d  11     -21.589  10.990 -11.976  0.00  0.00     0.031 A 
ATOM     10  C16 <0> d  11     -21.746   9.669 -11.594  0.00  0.00     0.002 A 
ATOM     11  C17 <0> d  11     -21.586   9.298 -10.271  0.00  0.00     0.002 A 
ATOM     12  C18 <0> d  11     -21.266  10.251  -9.318  0.00  0.00     0.021 A 
ATOM     13  N1  <0> d  11     -21.107  13.289 -11.409  0.00  0.00    -0.344 N 
ATOM     14  S1  <0> d  11     -20.700  12.808  -8.502  0.00  0.00    -0.086 SA
ENDROOT
BRANCH  13  15
ATOM     15  C6  <0> d  11     -21.986  13.846 -12.440  0.00  0.00     0.136 C 
BRANCH  15  16
ATOM     16  C4  <0> d  11     -23.105  14.649 -11.774  0.00  0.00     0.031 C 
ATOM     17  C3  <0> d  11     -23.218  16.062 -12.406  0.00  0.00     0.035 C 
ATOM     18  C2  <0> d  11     -24.704  16.409 -12.135  0.00  0.00     0.234 C 
ATOM     19  N2  <0> d  11     -25.418  15.130 -12.324  0.00  0.00    -0.074 N 
ATOM     20  C1  <0> d  11     -26.571  15.045 -11.390  0.00  0.00     0.269 C 
ATOM     21  C5  <0> d  11     -24.482  14.021 -12.078  0.00  0.00     0.240 C 
ATOM     22  H21 <0> d  11     -25.764  15.075 -13.289  0.00  0.00     0.279 HD
ENDBRANCH  15  16
ENDBRANCH  13  15
TORSDOF 2
ENDMDL
