REMARK INTER + INTRA:          -8.473
REMARK INTER:                  -7.896
REMARK INTRA:                  -0.577
REMARK UNBOUND:                -0.638
REMARK  3 active torsions:
REMARK  status: ('A' for Active; 'I' for Inactive)
REMARK    1  A    between atoms: C4_4  and  C7_7 
REMARK    2  A    between atoms: C14_14  and  C16_16 
REMARK    3  A    between atoms: C16_16  and  C17_17 
ROOT
ATOM      1  C7  <0> d  11     -20.173  13.501 -11.313  0.00  0.00     0.090 A 
ATOM      2  C8  <0> d  11     -18.859  13.845 -11.234  0.00  0.00     0.093 A 
ATOM      3  C9  <0> d  11     -18.489  15.207 -11.331  0.00  0.00     0.187 A 
ATOM      4  C10 <0> d  11     -19.572  16.194 -11.506  0.00  0.00     0.048 A 
ATOM      5  C11 <0> d  11     -19.302  17.557 -11.607  0.00  0.00     0.018 A 
ATOM      6  C12 <0> d  11     -20.342  18.447 -11.770  0.00  0.00     0.002 A 
ATOM      7  C13 <0> d  11     -21.650  17.990 -11.835  0.00  0.00     0.010 A 
ATOM      8  C14 <0> d  11     -21.930  16.644 -11.735  0.00  0.00    -0.013 A 
ATOM      9  C15 <0> d  11     -20.896  15.730 -11.570  0.00  0.00     0.097 A 
ATOM     10  O1  <0> d  11     -17.320  15.552 -11.269  0.00  0.00    -0.287 OA
ATOM     11  O2  <0> d  11     -21.148  14.409 -11.473  0.00  0.00    -0.308 OA
ENDROOT
BRANCH   1  12
ATOM     12  C4  <0> d  11     -20.540  12.075 -11.215  0.00  0.00    -0.002 A 
ATOM     13  C3  <0> d  11     -21.467  11.525 -12.105  0.00  0.00     0.014 A 
ATOM     14  C2  <0> d  11     -21.804  10.192 -12.007  0.00  0.00     0.001 A 
ATOM     15  C1  <0> d  11     -21.228   9.397 -11.032  0.00  0.00     0.000 A 
ATOM     16  C6  <0> d  11     -20.310   9.935 -10.147  0.00  0.00     0.001 A 
ATOM     17  C5  <0> d  11     -19.958  11.266 -10.237  0.00  0.00     0.014 A 
ENDBRANCH   1  12
BRANCH   8  18
ATOM     18  C16 <0> d  11     -23.357  16.163 -11.806  0.00  0.00     0.154 C 
BRANCH  18  19
ATOM     19  C17 <0> d  11     -23.753  15.977 -13.247  0.00  0.00     0.177 C 
ATOM     20  O3  <0> d  11     -23.766  14.870 -13.732  0.00  0.00    -0.648 OA
ATOM     21  O4  <0> d  11     -24.094  17.040 -13.992  0.00  0.00    -0.648 OA
ENDBRANCH  18  19
ENDBRANCH   8  18
TORSDOF 3
ENDMDL
