REMARK INTER + INTRA:          -7.749
REMARK INTER:                  -7.116
REMARK INTRA:                  -0.633
REMARK UNBOUND:                -0.633
REMARK  3 active torsions:
REMARK  status: ('A' for Active; 'I' for Inactive)
REMARK    1  A    between atoms: C4_4  and  C7_7 
REMARK    2  A    between atoms: C14_14  and  C16_16 
REMARK    3  A    between atoms: C16_16  and  C17_17 
ROOT
ATOM      1  C7  <0> d  11     -19.499  13.218 -10.289  0.00  0.00     0.090 A 
ATOM      2  C8  <0> d  11     -19.276  14.149 -11.255  0.00  0.00     0.093 A 
ATOM      3  C9  <0> d  11     -18.636  15.365 -10.917  0.00  0.00     0.187 A 
ATOM      4  C10 <0> d  11     -18.231  15.550  -9.510  0.00  0.00     0.048 A 
ATOM      5  C11 <0> d  11     -17.592  16.713  -9.086  0.00  0.00     0.018 A 
ATOM      6  C12 <0> d  11     -17.230  16.848  -7.763  0.00  0.00     0.002 A 
ATOM      7  C13 <0> d  11     -17.501  15.833  -6.858  0.00  0.00     0.010 A 
ATOM      8  C14 <0> d  11     -18.132  14.677  -7.265  0.00  0.00    -0.013 A 
ATOM      9  C15 <0> d  11     -18.505  14.521  -8.595  0.00  0.00     0.097 A 
ATOM     10  O1  <0> d  11     -18.425  16.225 -11.756  0.00  0.00    -0.287 OA
ATOM     11  O2  <0> d  11     -19.125  13.399  -9.013  0.00  0.00    -0.308 OA
ENDROOT
BRANCH   1  12
ATOM     12  C4  <0> d  11     -20.172  11.958 -10.659  0.00  0.00    -0.002 A 
ATOM     13  C3  <0> d  11     -19.900  10.783  -9.954  0.00  0.00     0.014 A 
ATOM     14  C2  <0> d  11     -20.534   9.609 -10.305  0.00  0.00     0.001 A 
ATOM     15  C1  <0> d  11     -21.436   9.593 -11.355  0.00  0.00     0.000 A 
ATOM     16  C6  <0> d  11     -21.709  10.752 -12.058  0.00  0.00     0.001 A 
ATOM     17  C5  <0> d  11     -21.088  11.935 -11.714  0.00  0.00     0.014 A 
ENDBRANCH   1  12
BRANCH   8  18
ATOM     18  C16 <0> d  11     -18.417  13.582  -6.269  0.00  0.00     0.154 C 
BRANCH  18  19
ATOM     19  C17 <0> d  11     -17.172  12.761  -6.053  0.00  0.00     0.177 C 
ATOM     20  O3  <0> d  11     -16.608  12.788  -4.985  0.00  0.00    -0.648 OA
ATOM     21  O4  <0> d  11     -16.690  12.001  -7.049  0.00  0.00    -0.648 OA
ENDBRANCH  18  19
ENDBRANCH   8  18
TORSDOF 3
ENDMDL
