REMARK INTER + INTRA:         -10.139
REMARK INTER:                  -8.681
REMARK INTRA:                  -1.458
REMARK UNBOUND:                -1.580
REMARK  4 active torsions:
REMARK  status: ('A' for Active; 'I' for Inactive)
REMARK    1  A    between atoms: C4_4  and  N1_25 
REMARK    2  A    between atoms: C8_8  and  C16_16 
REMARK    3  A    between atoms: C9_9  and  C10_10 
REMARK    4  A    between atoms: C16_16  and  C17_17 
ROOT
ATOM      1  C7  <0> d  11     -25.649  12.654 -10.972  0.00  0.00     0.271 A 
ATOM      2  C8  <0> d  11     -24.285  12.751 -10.630  0.00  0.00     0.044 A 
ATOM      3  C9  <0> d  11     -23.650  13.436 -11.623  0.00  0.00     0.070 A 
ATOM      4  H1  <0> d  11     -24.412  14.248 -13.401  0.00  0.00     0.187 HD
ATOM      5  N1  <0> d  11     -25.825  13.269 -12.158  0.00  0.00    -0.252 N 
ATOM      6  N2  <0> d  11     -24.583  13.760 -12.580  0.00  0.00    -0.294 N 
ATOM      7  O1  <0> d  11     -26.516  12.109 -10.311  0.00  0.00    -0.266 OA
ENDROOT
BRANCH   5   8
ATOM      8  C4  <0> d  11     -27.094  13.400 -12.880  0.00  0.00     0.115 C 
ATOM      9  C3  <0> d  11     -26.909  14.341 -14.073  0.00  0.00     0.055 C 
ATOM     10  C2  <0> d  11     -28.220  14.425 -14.858  0.00  0.00     0.236 C 
ATOM     11  N3  <0> d  11     -28.580  13.075 -15.339  0.00  0.00    -0.075 N 
ATOM     12  C1  <0> d  11     -29.782  13.147 -16.195  0.00  0.00     0.269 C 
ATOM     13  C6  <0> d  11     -28.831  12.177 -14.191  0.00  0.00     0.236 C 
ATOM     14  H26 <0> d  11     -27.800  12.699 -15.891  0.00  0.00     0.279 HD
ATOM     15  C5  <0> d  11     -27.538  12.025 -13.387  0.00  0.00     0.055 C 
ENDBRANCH   5   8
BRANCH   3  16
ATOM     16  C10 <0> d  11     -22.211  13.769 -11.664  0.00  0.00    -0.007 A 
ATOM     17  C15 <0> d  11     -21.730  14.886 -10.980  0.00  0.00     0.014 A 
ATOM     18  C14 <0> d  11     -20.385  15.191 -11.023  0.00  0.00     0.001 A 
ATOM     19  C13 <0> d  11     -19.514  14.392 -11.743  0.00  0.00     0.000 A 
ATOM     20  C12 <0> d  11     -19.984  13.283 -12.424  0.00  0.00     0.001 A 
ATOM     21  C11 <0> d  11     -21.326  12.964 -12.384  0.00  0.00     0.014 A 
ENDBRANCH   3  16
BRANCH   2  22
ATOM     22  C16 <0> d  11     -23.642  12.199  -9.383  0.00  0.00     0.085 C 
BRANCH  22  23
ATOM     23  C17 <0> d  11     -22.517  11.272  -9.768  0.00  0.00    -0.054 A 
ATOM     24  C22 <0> d  11     -22.741  10.251 -10.671  0.00  0.00     0.007 A 
ATOM     25  C21 <0> d  11     -21.709   9.401 -11.024  0.00  0.00     0.001 A 
ATOM     26  C20 <0> d  11     -20.453   9.574 -10.472  0.00  0.00     0.000 A 
ATOM     27  C19 <0> d  11     -20.228  10.598  -9.572  0.00  0.00     0.001 A 
ATOM     28  C18 <0> d  11     -21.262  11.444  -9.216  0.00  0.00     0.007 A 
ENDBRANCH  22  23
ENDBRANCH   2  22
TORSDOF 4
ENDMDL
