REMARK INTER + INTRA:          -6.978
REMARK INTER:                  -6.456
REMARK INTRA:                  -0.521
REMARK UNBOUND:                -0.631
REMARK  2 active torsions:
REMARK  status: ('A' for Active; 'I' for Inactive)
REMARK    1  A    between atoms: C4_4  and  C6_6 
REMARK    2  A    between atoms: C6_6  and  N1_20 
ROOT
ATOM      1  C7  <0> d  11     -22.373  11.859 -11.424  0.00  0.00     0.052 A 
ATOM      2  C8  <0> d  11     -21.622  10.841 -11.989  0.00  0.00     0.031 A 
ATOM      3  C9  <0> d  11     -21.773   9.540 -11.543  0.00  0.00     0.002 A 
ATOM      4  C10 <0> d  11     -22.672   9.245 -10.536  0.00  0.00     0.002 A 
ATOM      5  C11 <0> d  11     -23.428  10.255  -9.963  0.00  0.00     0.021 A 
ATOM      6  C12 <0> d  11     -23.279  11.556 -10.404  0.00  0.00     0.032 A 
ATOM      7  C13 <0> d  11     -24.341  14.016 -11.028  0.00  0.00     0.032 A 
ATOM      8  C14 <0> d  11     -23.317  14.046 -11.979  0.00  0.00     0.052 A 
ATOM      9  C15 <0> d  11     -23.394  14.946 -13.030  0.00  0.00     0.031 A 
ATOM     10  C16 <0> d  11     -24.477  15.802 -13.130  0.00  0.00     0.002 A 
ATOM     11  C17 <0> d  11     -25.486  15.768 -12.186  0.00  0.00     0.002 A 
ATOM     12  C18 <0> d  11     -25.419  14.873 -11.132  0.00  0.00     0.021 A 
ATOM     13  N1  <0> d  11     -22.226  13.176 -11.871  0.00  0.00    -0.344 N 
ATOM     14  S1  <0> d  11     -24.228  12.864  -9.693  0.00  0.00    -0.086 SA
ENDROOT
BRANCH  13  15
ATOM     15  C6  <0> d  11     -20.893  13.659 -12.240  0.00  0.00     0.136 C 
BRANCH  15  16
ATOM     16  C4  <0> d  11     -20.331  14.517 -11.106  0.00  0.00     0.031 C 
ATOM     17  C3  <0> d  11     -20.022  13.646  -9.860  0.00  0.00     0.035 C 
ATOM     18  C2  <0> d  11     -18.909  14.472  -9.167  0.00  0.00     0.234 C 
ATOM     19  N2  <0> d  11     -18.102  15.006 -10.282  0.00  0.00    -0.074 N 
ATOM     20  C1  <0> d  11     -17.579  16.354  -9.935  0.00  0.00     0.269 C 
ATOM     21  C5  <0> d  11     -18.946  15.084 -11.485  0.00  0.00     0.240 C 
ATOM     22  H21 <0> d  11     -17.312  14.376 -10.461  0.00  0.00     0.279 HD
ENDBRANCH  15  16
ENDBRANCH  13  15
TORSDOF 2
ENDMDL
