REMARK INTER + INTRA:          -6.821
REMARK INTER:                  -6.160
REMARK INTRA:                  -0.661
REMARK UNBOUND:                -0.657
REMARK  2 active torsions:
REMARK  status: ('A' for Active; 'I' for Inactive)
REMARK    1  A    between atoms: C4_4  and  C6_6 
REMARK    2  A    between atoms: C6_6  and  N1_20 
ROOT
ATOM      1  C7  <0> d  11     -21.836  11.911 -10.914  0.00  0.00     0.052 A 
ATOM      2  C8  <0> d  11     -21.222  10.800 -11.467  0.00  0.00     0.031 A 
ATOM      3  C9  <0> d  11     -21.917   9.609 -11.581  0.00  0.00     0.002 A 
ATOM      4  C10 <0> d  11     -23.225   9.518 -11.146  0.00  0.00     0.002 A 
ATOM      5  C11 <0> d  11     -23.850  10.623 -10.590  0.00  0.00     0.021 A 
ATOM      6  C12 <0> d  11     -23.159  11.813 -10.473  0.00  0.00     0.032 A 
ATOM      7  C13 <0> d  11     -23.078  14.562 -10.572  0.00  0.00     0.032 A 
ATOM      8  C14 <0> d  11     -21.764  14.354 -11.002  0.00  0.00     0.052 A 
ATOM      9  C15 <0> d  11     -21.087  15.386 -11.633  0.00  0.00     0.031 A 
ATOM     10  C16 <0> d  11     -21.711  16.604 -11.831  0.00  0.00     0.002 A 
ATOM     11  C17 <0> d  11     -23.010  16.804 -11.404  0.00  0.00     0.002 A 
ATOM     12  C18 <0> d  11     -23.697  15.780 -10.772  0.00  0.00     0.021 A 
ATOM     13  N1  <0> d  11     -21.140  13.119 -10.798  0.00  0.00    -0.344 N 
ATOM     14  S1  <0> d  11     -23.928  13.238  -9.769  0.00  0.00    -0.086 SA
ENDROOT
BRANCH  13  15
ATOM     15  C6  <0> d  11     -19.716  13.090 -10.456  0.00  0.00     0.136 C 
BRANCH  15  16
ATOM     16  C4  <0> d  11     -19.557  13.001  -8.937  0.00  0.00     0.031 C 
ATOM     17  C3  <0> d  11     -18.684  11.779  -8.548  0.00  0.00     0.035 C 
ATOM     18  C2  <0> d  11     -18.103  12.233  -7.185  0.00  0.00     0.234 C 
ATOM     19  N2  <0> d  11     -17.843  13.675  -7.360  0.00  0.00    -0.074 N 
ATOM     20  C1  <0> d  11     -18.073  14.395  -6.079  0.00  0.00     0.269 C 
ATOM     21  C5  <0> d  11     -18.740  14.196  -8.403  0.00  0.00     0.240 C 
ATOM     22  H21 <0> d  11     -16.868  13.813  -7.651  0.00  0.00     0.279 HD
ENDBRANCH  15  16
ENDBRANCH  13  15
TORSDOF 2
ENDMDL
