REMARK INTER + INTRA:          -7.483
REMARK INTER:                  -6.967
REMARK INTRA:                  -0.516
REMARK UNBOUND:                -0.657
REMARK  2 active torsions:
REMARK  status: ('A' for Active; 'I' for Inactive)
REMARK    1  A    between atoms: C4_4  and  C6_6 
REMARK    2  A    between atoms: C6_6  and  N1_20 
ROOT
ATOM      1  C7  <0> d  11     -21.039  11.452 -10.539  0.00  0.00     0.052 A 
ATOM      2  C8  <0> d  11     -20.880  10.095 -10.769  0.00  0.00     0.031 A 
ATOM      3  C9  <0> d  11     -21.974   9.316 -11.100  0.00  0.00     0.002 A 
ATOM      4  C10 <0> d  11     -23.230   9.882 -11.206  0.00  0.00     0.002 A 
ATOM      5  C11 <0> d  11     -23.402  11.238 -10.977  0.00  0.00     0.021 A 
ATOM      6  C12 <0> d  11     -22.312  12.019 -10.644  0.00  0.00     0.032 A 
ATOM      7  C13 <0> d  11     -20.914  14.384 -10.803  0.00  0.00     0.032 A 
ATOM      8  C14 <0> d  11     -19.797  13.554 -10.681  0.00  0.00     0.052 A 
ATOM      9  C15 <0> d  11     -18.548  14.041 -11.035  0.00  0.00     0.031 A 
ATOM     10  C16 <0> d  11     -18.419  15.335 -11.505  0.00  0.00     0.002 A 
ATOM     11  C17 <0> d  11     -19.527  16.152 -11.625  0.00  0.00     0.002 A 
ATOM     12  C18 <0> d  11     -20.780  15.676 -11.273  0.00  0.00     0.021 A 
ATOM     13  N1  <0> d  11     -19.936  12.245 -10.205  0.00  0.00    -0.344 N 
ATOM     14  S1  <0> d  11     -22.499  13.749 -10.347  0.00  0.00    -0.086 SA
ENDROOT
BRANCH  13  15
ATOM     15  C6  <0> d  11     -18.897  11.690  -9.335  0.00  0.00     0.136 C 
BRANCH  15  16
ATOM     16  C4  <0> d  11     -18.836  12.495  -8.035  0.00  0.00     0.031 C 
ATOM     17  C3  <0> d  11     -20.104  12.244  -7.177  0.00  0.00     0.035 C 
ATOM     18  C2  <0> d  11     -19.577  12.535  -5.749  0.00  0.00     0.234 C 
ATOM     19  N2  <0> d  11     -18.204  11.993  -5.748  0.00  0.00    -0.074 N 
ATOM     20  C1  <0> d  11     -17.326  12.827  -4.885  0.00  0.00     0.269 C 
ATOM     21  C5  <0> d  11     -17.696  11.983  -7.129  0.00  0.00     0.240 C 
ATOM     22  H21 <0> d  11     -18.217  11.033  -5.384  0.00  0.00     0.279 HD
ENDBRANCH  15  16
ENDBRANCH  13  15
TORSDOF 2
ENDMDL
