REMARK INTER + INTRA:          -5.421
REMARK INTER:                  -5.312
REMARK INTRA:                  -0.110
REMARK UNBOUND:                -0.101
REMARK  3 active torsions:
REMARK  status: ('A' for Active; 'I' for Inactive)
REMARK    1  A    between atoms: C3_3  and  S1_15 
REMARK    2  A    between atoms: C6_6  and  C7_7 
REMARK    3  A    between atoms: S1_15  and  N1_10 
ROOT
ATOM      1  C1  <0> d  11     -20.609  15.506 -11.478  0.00  0.00     0.020 A 
ATOM      2  C2  <0> d  11     -21.928  15.693 -11.836  0.00  0.00     0.026 A 
ATOM      3  C3  <0> d  11     -22.674  14.632 -12.317  0.00  0.00     0.079 A 
ATOM      4  C4  <0> d  11     -22.103  13.378 -12.446  0.00  0.00     0.026 A 
ATOM      5  C5  <0> d  11     -20.784  13.178 -12.097  0.00  0.00     0.020 A 
ATOM      6  C6  <0> d  11     -20.025  14.245 -11.612  0.00  0.00     0.040 A 
ENDROOT
BRANCH   3   7
ATOM      7  S1  <0> d  11     -24.361  14.878 -12.765  0.00  0.00     0.256 S 
ATOM      8  O2  <0> d  11     -25.092  13.798 -12.201  0.00  0.00    -0.201 OA
ATOM      9  O3  <0> d  11     -24.664  16.236 -12.476  0.00  0.00    -0.201 OA
BRANCH   7  10
ATOM     10  N1  <0> d  11     -24.459  14.710 -14.408  0.00  0.00    -0.324 N 
ATOM     11  H5  <0> d  11     -24.633  13.838 -14.797  0.00  0.00     0.169 HD
ATOM     12  H6  <0> d  11     -24.344  15.482 -14.983  0.00  0.00     0.169 HD
ENDBRANCH   7  10
ENDBRANCH   3   7
BRANCH   6  13
ATOM     13  C7  <0> d  11     -18.610  14.038 -11.236  0.00  0.00     0.209 C 
ATOM     14  O1  <0> d  11     -17.793  14.912 -11.444  0.00  0.00    -0.644 OA
ATOM     15  O4  <0> d  11     -18.229  12.883 -10.660  0.00  0.00    -0.644 OA
ENDBRANCH   6  13
TORSDOF 3
ENDMDL
