REMARK INTER + INTRA:          -6.683
REMARK INTER:                  -6.025
REMARK INTRA:                  -0.657
REMARK UNBOUND:                -0.657
REMARK  2 active torsions:
REMARK  status: ('A' for Active; 'I' for Inactive)
REMARK    1  A    between atoms: C4_4  and  C6_6 
REMARK    2  A    between atoms: C6_6  and  N1_20 
ROOT
ATOM      1  C7  <0> d  11     -19.922  14.296 -10.814  0.00  0.00     0.052 A 
ATOM      2  C8  <0> d  11     -19.277  15.251 -11.584  0.00  0.00     0.031 A 
ATOM      3  C9  <0> d  11     -18.287  16.038 -11.024  0.00  0.00     0.002 A 
ATOM      4  C10 <0> d  11     -17.933  15.880  -9.698  0.00  0.00     0.002 A 
ATOM      5  C11 <0> d  11     -18.572  14.929  -8.918  0.00  0.00     0.021 A 
ATOM      6  C12 <0> d  11     -19.561  14.142  -9.473  0.00  0.00     0.032 A 
ATOM      7  C13 <0> d  11     -20.850  11.723  -9.719  0.00  0.00     0.032 A 
ATOM      8  C14 <0> d  11     -21.066  12.145 -11.033  0.00  0.00     0.052 A 
ATOM      9  C15 <0> d  11     -21.426  11.214 -11.994  0.00  0.00     0.031 A 
ATOM     10  C16 <0> d  11     -21.565   9.882 -11.649  0.00  0.00     0.002 A 
ATOM     11  C17 <0> d  11     -21.350   9.469 -10.347  0.00  0.00     0.002 A 
ATOM     12  C18 <0> d  11     -20.990  10.391  -9.378  0.00  0.00     0.021 A 
ATOM     13  N1  <0> d  11     -20.922  13.495 -11.375  0.00  0.00    -0.344 N 
ATOM     14  S1  <0> d  11     -20.393  12.922  -8.504  0.00  0.00    -0.086 SA
ENDROOT
BRANCH  13  15
ATOM     15  C6  <0> d  11     -21.844  14.083 -12.349  0.00  0.00     0.136 C 
BRANCH  15  16
ATOM     16  C4  <0> d  11     -23.024  14.721 -11.615  0.00  0.00     0.031 C 
ATOM     17  C3  <0> d  11     -23.286  16.157 -12.142  0.00  0.00     0.035 C 
ATOM     18  C2  <0> d  11     -24.793  16.334 -11.829  0.00  0.00     0.234 C 
ATOM     19  N2  <0> d  11     -25.382  15.009 -12.103  0.00  0.00    -0.074 N 
ATOM     20  C1  <0> d  11     -26.504  14.744 -11.164  0.00  0.00     0.269 C 
ATOM     21  C5  <0> d  11     -24.338  13.984 -11.948  0.00  0.00     0.240 C 
ATOM     22  H21 <0> d  11     -25.739  14.987 -13.065  0.00  0.00     0.279 HD
ENDBRANCH  15  16
ENDBRANCH  13  15
TORSDOF 2
ENDMDL
