MODEL 1
REMARK VINA RESULT:    -7.042      0.000      0.000
REMARK INTER + INTRA:         -10.268
REMARK INTER:                  -8.756
REMARK INTRA:                  -1.513
REMARK UNBOUND:                -1.580
REMARK  4 active torsions:
REMARK  status: ('A' for Active; 'I' for Inactive)
REMARK    1  A    between atoms: C4_4  and  N1_25 
REMARK    2  A    between atoms: C8_8  and  C16_16 
REMARK    3  A    between atoms: C9_9  and  C10_10 
REMARK    4  A    between atoms: C16_16  and  C17_17 
ROOT
ATOM      1  C7  <0> d  11     -24.930  13.769 -11.852  0.00  0.00     0.271 A 
ATOM      2  C8  <0> d  11     -23.664  13.586 -11.260  0.00  0.00     0.044 A 
ATOM      3  C9  <0> d  11     -22.741  14.226 -12.033  0.00  0.00     0.070 A 
ATOM      4  H1  <0> d  11     -22.993  15.312 -13.810  0.00  0.00     0.187 HD
ATOM      5  N1  <0> d  11     -24.765  14.505 -12.968  0.00  0.00    -0.252 N 
ATOM      6  N2  <0> d  11     -23.401  14.795 -13.098  0.00  0.00    -0.294 N 
ATOM      7  O1  <0> d  11     -25.988  13.337 -11.427  0.00  0.00    -0.266 OA
ENDROOT
BRANCH   5   8
ATOM      8  C4  <0> d  11     -25.826  14.926 -13.887  0.00  0.00     0.115 C 
ATOM      9  C3  <0> d  11     -26.688  15.998 -13.216  0.00  0.00     0.055 C 
ATOM     10  C2  <0> d  11     -27.756  16.477 -14.201  0.00  0.00     0.236 C 
ATOM     11  N3  <0> d  11     -27.092  17.045 -15.392  0.00  0.00    -0.075 N 
ATOM     12  C1  <0> d  11     -28.099  17.618 -16.309  0.00  0.00     0.269 C 
ATOM     13  C6  <0> d  11     -26.315  15.997 -16.088  0.00  0.00     0.236 C 
ATOM     14  H26 <0> d  11     -26.452  17.791 -15.093  0.00  0.00     0.279 HD
ATOM     15  C5  <0> d  11     -25.203  15.505 -15.159  0.00  0.00     0.055 C 
ENDBRANCH   5   8
BRANCH   3  16
ATOM     16  C10 <0> d  11     -21.288  14.293 -11.775  0.00  0.00    -0.007 A 
ATOM     17  C15 <0> d  11     -20.431  13.348 -12.342  0.00  0.00     0.014 A 
ATOM     18  C14 <0> d  11     -19.075  13.417 -12.097  0.00  0.00     0.001 A 
ATOM     19  C13 <0> d  11     -18.565  14.418 -11.289  0.00  0.00     0.000 A 
ATOM     20  C12 <0> d  11     -19.409  15.358 -10.724  0.00  0.00     0.001 A 
ATOM     21  C11 <0> d  11     -20.766  15.304 -10.967  0.00  0.00     0.014 A 
ENDBRANCH   3  16
BRANCH   2  22
ATOM     22  C16 <0> d  11     -23.379  12.821  -9.992  0.00  0.00     0.085 C 
BRANCH  22  23
ATOM     23  C17 <0> d  11     -22.464  11.664 -10.299  0.00  0.00    -0.054 A 
ATOM     24  C22 <0> d  11     -22.779  10.784 -11.317  0.00  0.00     0.007 A 
ATOM     25  C21 <0> d  11     -21.939   9.722 -11.599  0.00  0.00     0.001 A 
ATOM     26  C20 <0> d  11     -20.783   9.542 -10.862  0.00  0.00     0.000 A 
ATOM     27  C19 <0> d  11     -20.466  10.425  -9.847  0.00  0.00     0.001 A 
ATOM     28  C18 <0> d  11     -21.309  11.483  -9.562  0.00  0.00     0.007 A 
ENDBRANCH  22  23
ENDBRANCH   2  22
TORSDOF 4
ENDMDL
MODEL 2
REMARK VINA RESULT:    -6.937      1.911      2.375
REMARK INTER + INTRA:         -10.139
REMARK INTER:                  -8.681
REMARK INTRA:                  -1.458
REMARK UNBOUND:                -1.580
REMARK  4 active torsions:
REMARK  status: ('A' for Active; 'I' for Inactive)
REMARK    1  A    between atoms: C4_4  and  N1_25 
REMARK    2  A    between atoms: C8_8  and  C16_16 
REMARK    3  A    between atoms: C9_9  and  C10_10 
REMARK    4  A    between atoms: C16_16  and  C17_17 
ROOT
ATOM      1  C7  <0> d  11     -25.649  12.654 -10.972  0.00  0.00     0.271 A 
ATOM      2  C8  <0> d  11     -24.285  12.751 -10.630  0.00  0.00     0.044 A 
ATOM      3  C9  <0> d  11     -23.650  13.436 -11.623  0.00  0.00     0.070 A 
ATOM      4  H1  <0> d  11     -24.412  14.248 -13.401  0.00  0.00     0.187 HD
ATOM      5  N1  <0> d  11     -25.825  13.269 -12.158  0.00  0.00    -0.252 N 
ATOM      6  N2  <0> d  11     -24.583  13.760 -12.580  0.00  0.00    -0.294 N 
ATOM      7  O1  <0> d  11     -26.516  12.109 -10.311  0.00  0.00    -0.266 OA
ENDROOT
BRANCH   5   8
ATOM      8  C4  <0> d  11     -27.094  13.400 -12.880  0.00  0.00     0.115 C 
ATOM      9  C3  <0> d  11     -26.909  14.341 -14.073  0.00  0.00     0.055 C 
ATOM     10  C2  <0> d  11     -28.220  14.425 -14.858  0.00  0.00     0.236 C 
ATOM     11  N3  <0> d  11     -28.580  13.075 -15.339  0.00  0.00    -0.075 N 
ATOM     12  C1  <0> d  11     -29.782  13.147 -16.195  0.00  0.00     0.269 C 
ATOM     13  C6  <0> d  11     -28.831  12.177 -14.191  0.00  0.00     0.236 C 
ATOM     14  H26 <0> d  11     -27.800  12.699 -15.891  0.00  0.00     0.279 HD
ATOM     15  C5  <0> d  11     -27.538  12.025 -13.387  0.00  0.00     0.055 C 
ENDBRANCH   5   8
BRANCH   3  16
ATOM     16  C10 <0> d  11     -22.211  13.769 -11.664  0.00  0.00    -0.007 A 
ATOM     17  C15 <0> d  11     -21.730  14.886 -10.980  0.00  0.00     0.014 A 
ATOM     18  C14 <0> d  11     -20.385  15.191 -11.023  0.00  0.00     0.001 A 
ATOM     19  C13 <0> d  11     -19.514  14.392 -11.743  0.00  0.00     0.000 A 
ATOM     20  C12 <0> d  11     -19.984  13.283 -12.424  0.00  0.00     0.001 A 
ATOM     21  C11 <0> d  11     -21.326  12.964 -12.384  0.00  0.00     0.014 A 
ENDBRANCH   3  16
BRANCH   2  22
ATOM     22  C16 <0> d  11     -23.642  12.199  -9.383  0.00  0.00     0.085 C 
BRANCH  22  23
ATOM     23  C17 <0> d  11     -22.517  11.272  -9.768  0.00  0.00    -0.054 A 
ATOM     24  C22 <0> d  11     -22.741  10.251 -10.671  0.00  0.00     0.007 A 
ATOM     25  C21 <0> d  11     -21.709   9.401 -11.024  0.00  0.00     0.001 A 
ATOM     26  C20 <0> d  11     -20.453   9.574 -10.472  0.00  0.00     0.000 A 
ATOM     27  C19 <0> d  11     -20.228  10.598  -9.572  0.00  0.00     0.001 A 
ATOM     28  C18 <0> d  11     -21.262  11.444  -9.216  0.00  0.00     0.007 A 
ENDBRANCH  22  23
ENDBRANCH   2  22
TORSDOF 4
ENDMDL
MODEL 3
REMARK VINA RESULT:    -6.589      4.956      6.450
REMARK INTER + INTRA:          -9.710
REMARK INTER:                  -8.244
REMARK INTRA:                  -1.466
REMARK UNBOUND:                -1.580
REMARK  4 active torsions:
REMARK  status: ('A' for Active; 'I' for Inactive)
REMARK    1  A    between atoms: C4_4  and  N1_25 
REMARK    2  A    between atoms: C8_8  and  C16_16 
REMARK    3  A    between atoms: C9_9  and  C10_10 
REMARK    4  A    between atoms: C16_16  and  C17_17 
ROOT
ATOM      1  C7  <0> d  11     -19.099  13.196 -10.845  0.00  0.00     0.271 A 
ATOM      2  C8  <0> d  11     -19.047  12.344  -9.724  0.00  0.00     0.044 A 
ATOM      3  C9  <0> d  11     -18.779  13.108  -8.627  0.00  0.00     0.070 A 
ATOM      4  H1  <0> d  11     -18.462  15.175  -8.469  0.00  0.00     0.187 HD
ATOM      5  N1  <0> d  11     -18.861  14.453 -10.424  0.00  0.00    -0.252 N 
ATOM      6  N2  <0> d  11     -18.654  14.414  -9.039  0.00  0.00    -0.294 N 
ATOM      7  O1  <0> d  11     -19.323  12.855 -11.994  0.00  0.00    -0.266 OA
ENDROOT
BRANCH   5   8
ATOM      8  C4  <0> d  11     -18.822  15.651 -11.267  0.00  0.00     0.115 C 
ATOM      9  C3  <0> d  11     -19.989  16.572 -10.902  0.00  0.00     0.055 C 
ATOM     10  C2  <0> d  11     -19.908  17.848 -11.743  0.00  0.00     0.236 C 
ATOM     11  N3  <0> d  11     -18.628  18.530 -11.460  0.00  0.00    -0.075 N 
ATOM     12  C1  <0> d  11     -18.575  19.822 -12.174  0.00  0.00     0.269 C 
ATOM     13  C6  <0> d  11     -17.495  17.676 -11.877  0.00  0.00     0.236 C 
ATOM     14  H26 <0> d  11     -18.560  18.704 -10.450  0.00  0.00     0.279 HD
ATOM     15  C5  <0> d  11     -17.504  16.396 -11.039  0.00  0.00     0.055 C 
ENDBRANCH   5   8
BRANCH   3  16
ATOM     16  C10 <0> d  11     -18.643  12.617  -7.240  0.00  0.00    -0.007 A 
ATOM     17  C15 <0> d  11     -19.721  12.703  -6.357  0.00  0.00     0.014 A 
ATOM     18  C14 <0> d  11     -19.587  12.243  -5.064  0.00  0.00     0.001 A 
ATOM     19  C13 <0> d  11     -18.387  11.699  -4.640  0.00  0.00     0.000 A 
ATOM     20  C12 <0> d  11     -17.315  11.611  -5.509  0.00  0.00     0.001 A 
ATOM     21  C11 <0> d  11     -17.437  12.062  -6.808  0.00  0.00     0.014 A 
ENDBRANCH   3  16
BRANCH   2  22
ATOM     22  C16 <0> d  11     -19.255  10.851  -9.734  0.00  0.00     0.085 C 
BRANCH  22  23
ATOM     23  C17 <0> d  11     -20.717  10.550  -9.939  0.00  0.00    -0.054 A 
ATOM     24  C22 <0> d  11     -21.636  10.883  -8.962  0.00  0.00     0.007 A 
ATOM     25  C21 <0> d  11     -22.978  10.607  -9.151  0.00  0.00     0.001 A 
ATOM     26  C20 <0> d  11     -23.400   9.999 -10.318  0.00  0.00     0.000 A 
ATOM     27  C19 <0> d  11     -22.482   9.670 -11.297  0.00  0.00     0.001 A 
ATOM     28  C18 <0> d  11     -21.140   9.941 -11.106  0.00  0.00     0.007 A 
ENDBRANCH  22  23
ENDBRANCH   2  22
TORSDOF 4
ENDMDL
MODEL 4
REMARK VINA RESULT:    -6.576      1.471      3.795
REMARK INTER + INTRA:          -9.694
REMARK INTER:                  -8.224
REMARK INTRA:                  -1.470
REMARK UNBOUND:                -1.580
REMARK  4 active torsions:
REMARK  status: ('A' for Active; 'I' for Inactive)
REMARK    1  A    between atoms: C4_4  and  N1_25 
REMARK    2  A    between atoms: C8_8  and  C16_16 
REMARK    3  A    between atoms: C9_9  and  C10_10 
REMARK    4  A    between atoms: C16_16  and  C17_17 
ROOT
ATOM      1  C7  <0> d  11     -23.572  15.490 -11.796  0.00  0.00     0.271 A 
ATOM      2  C8  <0> d  11     -22.930  14.432 -11.120  0.00  0.00     0.044 A 
ATOM      3  C9  <0> d  11     -23.360  13.260 -11.668  0.00  0.00     0.070 A 
ATOM      4  H1  <0> d  11     -24.729  12.921 -13.221  0.00  0.00     0.187 HD
ATOM      5  N1  <0> d  11     -24.379  14.955 -12.733  0.00  0.00    -0.252 N 
ATOM      6  N2  <0> d  11     -24.261  13.561 -12.663  0.00  0.00    -0.294 N 
ATOM      7  O1  <0> d  11     -23.421  16.678 -11.572  0.00  0.00    -0.266 OA
ENDROOT
BRANCH   5   8
ATOM      8  C4  <0> d  11     -25.233  15.702 -13.660  0.00  0.00     0.115 C 
ATOM      9  C3  <0> d  11     -24.552  15.785 -15.029  0.00  0.00     0.055 C 
ATOM     10  C2  <0> d  11     -25.475  16.512 -16.010  0.00  0.00     0.236 C 
ATOM     11  N3  <0> d  11     -26.740  15.759 -16.128  0.00  0.00    -0.075 N 
ATOM     12  C1  <0> d  11     -27.604  16.378 -17.154  0.00  0.00     0.269 C 
ATOM     13  C6  <0> d  11     -27.441  15.736 -14.825  0.00  0.00     0.236 C 
ATOM     14  H26 <0> d  11     -26.529  14.794 -16.409  0.00  0.00     0.279 HD
ATOM     15  C5  <0> d  11     -26.577  14.984 -13.810  0.00  0.00     0.055 C 
ENDBRANCH   5   8
BRANCH   3  16
ATOM     16  C10 <0> d  11     -22.935  11.904 -11.262  0.00  0.00    -0.007 A 
ATOM     17  C15 <0> d  11     -21.875  11.276 -11.919  0.00  0.00     0.014 A 
ATOM     18  C14 <0> d  11     -21.483  10.010 -11.535  0.00  0.00     0.001 A 
ATOM     19  C13 <0> d  11     -22.139   9.364 -10.502  0.00  0.00     0.000 A 
ATOM     20  C12 <0> d  11     -23.189   9.981  -9.846  0.00  0.00     0.001 A 
ATOM     21  C11 <0> d  11     -23.587  11.249 -10.216  0.00  0.00     0.014 A 
ENDBRANCH   3  16
BRANCH   2  22
ATOM     22  C16 <0> d  11     -21.939  14.572  -9.993  0.00  0.00     0.085 C 
BRANCH  22  23
ATOM     23  C17 <0> d  11     -20.576  14.880 -10.559  0.00  0.00    -0.054 A 
ATOM     24  C22 <0> d  11     -19.801  13.866 -11.088  0.00  0.00     0.007 A 
ATOM     25  C21 <0> d  11     -18.551  14.150 -11.608  0.00  0.00     0.001 A 
ATOM     26  C20 <0> d  11     -18.079  15.449 -11.599  0.00  0.00     0.000 A 
ATOM     27  C19 <0> d  11     -18.856  16.464 -11.074  0.00  0.00     0.001 A 
ATOM     28  C18 <0> d  11     -20.103  16.179 -10.550  0.00  0.00     0.007 A 
ENDBRANCH  22  23
ENDBRANCH   2  22
TORSDOF 4
ENDMDL
MODEL 5
REMARK VINA RESULT:    -6.509      2.942      6.515
REMARK INTER + INTRA:          -9.611
REMARK INTER:                  -8.031
REMARK INTRA:                  -1.580
REMARK UNBOUND:                -1.580
REMARK  4 active torsions:
REMARK  status: ('A' for Active; 'I' for Inactive)
REMARK    1  A    between atoms: C4_4  and  N1_25 
REMARK    2  A    between atoms: C8_8  and  C16_16 
REMARK    3  A    between atoms: C9_9  and  C10_10 
REMARK    4  A    between atoms: C16_16  and  C17_17 
ROOT
ATOM      1  C7  <0> d  11     -19.513  14.089 -11.770  0.00  0.00     0.271 A 
ATOM      2  C8  <0> d  11     -20.793  13.595 -12.092  0.00  0.00     0.044 A 
ATOM      3  C9  <0> d  11     -21.706  14.561 -11.786  0.00  0.00     0.070 A 
ATOM      4  H1  <0> d  11     -21.422  16.472 -10.969  0.00  0.00     0.187 HD
ATOM      5  N1  <0> d  11     -19.659  15.332 -11.273  0.00  0.00    -0.252 N 
ATOM      6  N2  <0> d  11     -21.025  15.641 -11.273  0.00  0.00    -0.294 N 
ATOM      7  O1  <0> d  11     -18.459  13.494 -11.917  0.00  0.00    -0.266 OA
ENDROOT
BRANCH   5   8
ATOM      8  C4  <0> d  11     -18.578  16.208 -10.812  0.00  0.00     0.115 C 
ATOM      9  C3  <0> d  11     -18.838  17.638 -11.291  0.00  0.00     0.055 C 
ATOM     10  C2  <0> d  11     -17.739  18.559 -10.755  0.00  0.00     0.236 C 
ATOM     11  N3  <0> d  11     -17.755  18.516  -9.278  0.00  0.00    -0.075 N 
ATOM     12  C1  <0> d  11     -16.778  19.483  -8.735  0.00  0.00     0.269 C 
ATOM     13  C6  <0> d  11     -17.432  17.153  -8.806  0.00  0.00     0.236 C 
ATOM     14  H26 <0> d  11     -18.693  18.770  -8.948  0.00  0.00     0.279 HD
ATOM     15  C5  <0> d  11     -18.523  16.191  -9.283  0.00  0.00     0.055 C 
ENDBRANCH   5   8
BRANCH   3  16
ATOM     16  C10 <0> d  11     -23.168  14.463 -11.971  0.00  0.00    -0.007 A 
ATOM     17  C15 <0> d  11     -23.966  13.910 -10.967  0.00  0.00     0.014 A 
ATOM     18  C14 <0> d  11     -25.331  13.822 -11.146  0.00  0.00     0.001 A 
ATOM     19  C13 <0> d  11     -25.909  14.280 -12.317  0.00  0.00     0.000 A 
ATOM     20  C12 <0> d  11     -25.125  14.830 -13.315  0.00  0.00     0.001 A 
ATOM     21  C11 <0> d  11     -23.759  14.929 -13.146  0.00  0.00     0.014 A 
ENDBRANCH   3  16
BRANCH   2  22
ATOM     22  C16 <0> d  11     -21.101  12.240 -12.676  0.00  0.00     0.085 C 
BRANCH  22  23
ATOM     23  C17 <0> d  11     -21.484  11.292 -11.569  0.00  0.00    -0.054 A 
ATOM     24  C22 <0> d  11     -22.745  10.728 -11.547  0.00  0.00     0.007 A 
ATOM     25  C21 <0> d  11     -23.096   9.858 -10.532  0.00  0.00     0.001 A 
ATOM     26  C20 <0> d  11     -22.185   9.553  -9.538  0.00  0.00     0.000 A 
ATOM     27  C19 <0> d  11     -20.923  10.114  -9.561  0.00  0.00     0.001 A 
ATOM     28  C18 <0> d  11     -20.574  10.988 -10.574  0.00  0.00     0.007 A 
ENDBRANCH  22  23
ENDBRANCH   2  22
TORSDOF 4
ENDMDL
