REMARK INTER + INTRA:          -5.457
REMARK INTER:                  -5.345
REMARK INTRA:                  -0.112
REMARK UNBOUND:                -0.101
REMARK  3 active torsions:
REMARK  status: ('A' for Active; 'I' for Inactive)
REMARK    1  A    between atoms: C3_3  and  S1_15 
REMARK    2  A    between atoms: C6_6  and  C7_7 
REMARK    3  A    between atoms: S1_15  and  N1_10 
ROOT
ATOM      1  C1  <0> d  11     -20.837  15.364 -11.646  0.00  0.00     0.020 A 
ATOM      2  C2  <0> d  11     -19.897  16.300 -11.264  0.00  0.00     0.026 A 
ATOM      3  C3  <0> d  11     -18.556  15.963 -11.232  0.00  0.00     0.079 A 
ATOM      4  C4  <0> d  11     -18.147  14.687 -11.577  0.00  0.00     0.026 A 
ATOM      5  C5  <0> d  11     -19.076  13.740 -11.956  0.00  0.00     0.020 A 
ATOM      6  C6  <0> d  11     -20.431  14.073 -11.990  0.00  0.00     0.040 A 
ENDROOT
BRANCH   3   7
ATOM      7  S1  <0> d  11     -17.361  17.166 -10.749  0.00  0.00     0.256 S 
ATOM      8  O2  <0> d  11     -17.949  18.438 -10.985  0.00  0.00    -0.201 OA
ATOM      9  O3  <0> d  11     -16.882  16.773  -9.470  0.00  0.00    -0.201 OA
BRANCH   7  10
ATOM     10  N1  <0> d  11     -16.084  17.033 -11.794  0.00  0.00    -0.324 N 
ATOM     11  H5  <0> d  11     -15.917  16.193 -12.250  0.00  0.00     0.169 HD
ATOM     12  H6  <0> d  11     -15.504  17.794 -11.950  0.00  0.00     0.169 HD
ENDBRANCH   7  10
ENDBRANCH   3   7
BRANCH   6  13
ATOM     13  C7  <0> d  11     -21.433  13.064 -12.395  0.00  0.00     0.209 C 
ATOM     14  O1  <0> d  11     -22.534  13.417 -12.766  0.00  0.00    -0.644 OA
ATOM     15  O4  <0> d  11     -21.122  11.755 -12.357  0.00  0.00    -0.644 OA
ENDBRANCH   6  13
TORSDOF 3
ENDMDL
