MODEL 1
REMARK VINA RESULT:    -4.739      0.000      0.000
REMARK INTER + INTRA:          -5.532
REMARK INTER:                  -5.421
REMARK INTRA:                  -0.111
REMARK UNBOUND:                -0.101
REMARK  3 active torsions:
REMARK  status: ('A' for Active; 'I' for Inactive)
REMARK    1  A    between atoms: C3_3  and  S1_15 
REMARK    2  A    between atoms: C6_6  and  C7_7 
REMARK    3  A    between atoms: S1_15  and  N1_10 
ROOT
ATOM      1  C1  <0> d  11     -19.784  16.538 -11.325  0.00  0.00     0.020 A 
ATOM      2  C2  <0> d  11     -20.775  15.597 -11.514  0.00  0.00     0.026 A 
ATOM      3  C3  <0> d  11     -20.442  14.278 -11.763  0.00  0.00     0.079 A 
ATOM      4  C4  <0> d  11     -19.114  13.893 -11.828  0.00  0.00     0.026 A 
ATOM      5  C5  <0> d  11     -18.113  14.824 -11.646  0.00  0.00     0.020 A 
ATOM      6  C6  <0> d  11     -18.443  16.157 -11.395  0.00  0.00     0.040 A 
ENDROOT
BRANCH   3   7
ATOM      7  S1  <0> d  11     -21.714  13.081 -11.997  0.00  0.00     0.256 S 
ATOM      8  O2  <0> d  11     -21.158  12.048 -12.798  0.00  0.00    -0.201 OA
ATOM      9  O3  <0> d  11     -22.279  12.832 -10.717  0.00  0.00    -0.201 OA
BRANCH   7  10
ATOM     10  N1  <0> d  11     -22.899  13.798 -12.905  0.00  0.00    -0.324 N 
ATOM     11  H5  <0> d  11     -23.137  14.725 -12.747  0.00  0.00     0.169 HD
ATOM     12  H6  <0> d  11     -23.354  13.291 -13.596  0.00  0.00     0.169 HD
ENDBRANCH   7  10
ENDBRANCH   3   7
BRANCH   6  13
ATOM     13  C7  <0> d  11     -17.375  17.160 -11.199  0.00  0.00     0.209 C 
ATOM     14  O1  <0> d  11     -16.269  16.967 -11.661  0.00  0.00    -0.644 OA
ATOM     15  O4  <0> d  11     -17.630  18.290 -10.511  0.00  0.00    -0.644 OA
ENDBRANCH   6  13
TORSDOF 3
ENDMDL
MODEL 2
REMARK VINA RESULT:    -4.672      2.686      3.299
REMARK INTER + INTRA:          -5.456
REMARK INTER:                  -5.344
REMARK INTRA:                  -0.112
REMARK UNBOUND:                -0.101
REMARK  3 active torsions:
REMARK  status: ('A' for Active; 'I' for Inactive)
REMARK    1  A    between atoms: C3_3  and  S1_15 
REMARK    2  A    between atoms: C6_6  and  C7_7 
REMARK    3  A    between atoms: S1_15  and  N1_10 
ROOT
ATOM      1  C1  <0> d  11     -19.384  12.789  -9.909  0.00  0.00     0.020 A 
ATOM      2  C2  <0> d  11     -20.284  11.748 -10.010  0.00  0.00     0.026 A 
ATOM      3  C3  <0> d  11     -21.057  11.605 -11.148  0.00  0.00     0.079 A 
ATOM      4  C4  <0> d  11     -20.936  12.507 -12.192  0.00  0.00     0.026 A 
ATOM      5  C5  <0> d  11     -20.044  13.555 -12.103  0.00  0.00     0.020 A 
ATOM      6  C6  <0> d  11     -19.262  13.705 -10.956  0.00  0.00     0.040 A 
ENDROOT
BRANCH   3   7
ATOM      7  S1  <0> d  11     -22.199  10.269 -11.271  0.00  0.00     0.256 S 
ATOM      8  O2  <0> d  11     -23.475  10.847 -11.509  0.00  0.00    -0.201 OA
ATOM      9  O3  <0> d  11     -21.617   9.317 -12.152  0.00  0.00    -0.201 OA
BRANCH   7  10
ATOM     10  N1  <0> d  11     -22.274   9.551  -9.781  0.00  0.00    -0.324 N 
ATOM     11  H5  <0> d  11     -22.866   9.909  -9.101  0.00  0.00     0.169 HD
ATOM     12  H6  <0> d  11     -21.727   8.774  -9.589  0.00  0.00     0.169 HD
ENDBRANCH   7  10
ENDBRANCH   3   7
BRANCH   6  13
ATOM     13  C7  <0> d  11     -18.304  14.826 -10.853  0.00  0.00     0.209 C 
ATOM     14  O1  <0> d  11     -17.955  15.419 -11.854  0.00  0.00    -0.644 OA
ATOM     15  O4  <0> d  11     -17.823  15.193  -9.650  0.00  0.00    -0.644 OA
ENDBRANCH   6  13
TORSDOF 3
ENDMDL
MODEL 3
REMARK VINA RESULT:    -4.671      2.890      5.298
REMARK INTER + INTRA:          -5.455
REMARK INTER:                  -5.344
REMARK INTRA:                  -0.112
REMARK UNBOUND:                -0.101
REMARK  3 active torsions:
REMARK  status: ('A' for Active; 'I' for Inactive)
REMARK    1  A    between atoms: C3_3  and  S1_15 
REMARK    2  A    between atoms: C6_6  and  C7_7 
REMARK    3  A    between atoms: S1_15  and  N1_10 
ROOT
ATOM      1  C1  <0> d  11     -20.855  15.354 -11.635  0.00  0.00     0.020 A 
ATOM      2  C2  <0> d  11     -19.910  16.284 -11.254  0.00  0.00     0.026 A 
ATOM      3  C3  <0> d  11     -18.570  15.943 -11.228  0.00  0.00     0.079 A 
ATOM      4  C4  <0> d  11     -18.168  14.666 -11.578  0.00  0.00     0.026 A 
ATOM      5  C5  <0> d  11     -19.102  13.724 -11.956  0.00  0.00     0.020 A 
ATOM      6  C6  <0> d  11     -20.456  14.062 -11.984  0.00  0.00     0.040 A 
ENDROOT
BRANCH   3   7
ATOM      7  S1  <0> d  11     -17.369  17.139 -10.747  0.00  0.00     0.256 S 
ATOM      8  O2  <0> d  11     -17.950  18.415 -10.985  0.00  0.00    -0.201 OA
ATOM      9  O3  <0> d  11     -16.893  16.746  -9.467  0.00  0.00    -0.201 OA
BRANCH   7  10
ATOM     10  N1  <0> d  11     -16.093  16.998 -11.791  0.00  0.00    -0.324 N 
ATOM     11  H5  <0> d  11     -15.576  17.783 -12.034  0.00  0.00     0.169 HD
ATOM     12  H6  <0> d  11     -15.861  16.132 -12.161  0.00  0.00     0.169 HD
ENDBRANCH   7  10
ENDBRANCH   3   7
BRANCH   6  13
ATOM     13  C7  <0> d  11     -21.463  13.058 -12.388  0.00  0.00     0.209 C 
ATOM     14  O1  <0> d  11     -22.558  13.417 -12.772  0.00  0.00    -0.644 OA
ATOM     15  O4  <0> d  11     -21.165  11.745 -12.333  0.00  0.00    -0.644 OA
ENDBRANCH   6  13
TORSDOF 3
ENDMDL
MODEL 4
REMARK VINA RESULT:    -4.582      2.836      5.407
REMARK INTER + INTRA:          -5.353
REMARK INTER:                  -5.240
REMARK INTRA:                  -0.113
REMARK UNBOUND:                -0.101
REMARK  3 active torsions:
REMARK  status: ('A' for Active; 'I' for Inactive)
REMARK    1  A    between atoms: C3_3  and  S1_15 
REMARK    2  A    between atoms: C6_6  and  C7_7 
REMARK    3  A    between atoms: S1_15  and  N1_10 
ROOT
ATOM      1  C1  <0> d  11     -19.062  13.761 -11.959  0.00  0.00     0.020 A 
ATOM      2  C2  <0> d  11     -18.139  14.718 -11.590  0.00  0.00     0.026 A 
ATOM      3  C3  <0> d  11     -18.558  15.990 -11.244  0.00  0.00     0.079 A 
ATOM      4  C4  <0> d  11     -19.904  16.313 -11.269  0.00  0.00     0.026 A 
ATOM      5  C5  <0> d  11     -20.837  15.368 -11.641  0.00  0.00     0.020 A 
ATOM      6  C6  <0> d  11     -20.420  14.082 -11.992  0.00  0.00     0.040 A 
ENDROOT
BRANCH   3   7
ATOM      7  S1  <0> d  11     -17.374  17.204 -10.767  0.00  0.00     0.256 S 
ATOM      8  O2  <0> d  11     -16.238  17.011 -11.599  0.00  0.00    -0.201 OA
ATOM      9  O3  <0> d  11     -18.066  18.443 -10.699  0.00  0.00    -0.201 OA
BRANCH   7  10
ATOM     10  N1  <0> d  11     -16.897  16.843  -9.224  0.00  0.00    -0.324 N 
ATOM     11  H5  <0> d  11     -17.380  16.176  -8.711  0.00  0.00     0.169 HD
ATOM     12  H6  <0> d  11     -16.135  17.297  -8.832  0.00  0.00     0.169 HD
ENDBRANCH   7  10
ENDBRANCH   3   7
BRANCH   6  13
ATOM     13  C7  <0> d  11     -21.414  13.064 -12.392  0.00  0.00     0.209 C 
ATOM     14  O1  <0> d  11     -21.119  11.886 -12.370  0.00  0.00    -0.644 OA
ATOM     15  O4  <0> d  11     -22.649  13.442 -12.776  0.00  0.00    -0.644 OA
ENDBRANCH   6  13
TORSDOF 3
ENDMDL
MODEL 5
REMARK VINA RESULT:    -4.519      3.203      5.780
REMARK INTER + INTRA:          -5.281
REMARK INTER:                  -5.179
REMARK INTRA:                  -0.101
REMARK UNBOUND:                -0.101
REMARK  3 active torsions:
REMARK  status: ('A' for Active; 'I' for Inactive)
REMARK    1  A    between atoms: C3_3  and  S1_15 
REMARK    2  A    between atoms: C6_6  and  C7_7 
REMARK    3  A    between atoms: S1_15  and  N1_10 
ROOT
ATOM      1  C1  <0> d  11     -20.919  11.827 -10.053  0.00  0.00     0.020 A 
ATOM      2  C2  <0> d  11     -20.166  12.966  -9.858  0.00  0.00     0.026 A 
ATOM      3  C3  <0> d  11     -19.826  13.767 -10.933  0.00  0.00     0.079 A 
ATOM      4  C4  <0> d  11     -20.236  13.430 -12.212  0.00  0.00     0.026 A 
ATOM      5  C5  <0> d  11     -20.985  12.291 -12.422  0.00  0.00     0.020 A 
ATOM      6  C6  <0> d  11     -21.330  11.478 -11.341  0.00  0.00     0.040 A 
ENDROOT
BRANCH   3   7
ATOM      7  S1  <0> d  11     -18.870  15.224 -10.674  0.00  0.00     0.256 S 
ATOM      8  O2  <0> d  11     -17.859  15.229 -11.673  0.00  0.00    -0.201 OA
ATOM      9  O3  <0> d  11     -19.793  16.294 -10.518  0.00  0.00    -0.201 OA
BRANCH   7  10
ATOM     10  N1  <0> d  11     -18.098  15.050  -9.220  0.00  0.00    -0.324 N 
ATOM     11  H5  <0> d  11     -17.129  15.068  -9.181  0.00  0.00     0.169 HD
ATOM     12  H6  <0> d  11     -18.614  14.931  -8.408  0.00  0.00     0.169 HD
ENDBRANCH   7  10
ENDBRANCH   3   7
BRANCH   6  13
ATOM     13  C7  <0> d  11     -22.132  10.256 -11.559  0.00  0.00     0.209 C 
ATOM     14  O1  <0> d  11     -21.594   9.237 -11.942  0.00  0.00    -0.644 OA
ATOM     15  O4  <0> d  11     -23.460  10.271 -11.328  0.00  0.00    -0.644 OA
ENDBRANCH   6  13
TORSDOF 3
ENDMDL
