REMARK INTER + INTRA:          -9.710
REMARK INTER:                  -8.244
REMARK INTRA:                  -1.466
REMARK UNBOUND:                -1.580
REMARK  4 active torsions:
REMARK  status: ('A' for Active; 'I' for Inactive)
REMARK    1  A    between atoms: C4_4  and  N1_25 
REMARK    2  A    between atoms: C8_8  and  C16_16 
REMARK    3  A    between atoms: C9_9  and  C10_10 
REMARK    4  A    between atoms: C16_16  and  C17_17 
ROOT
ATOM      1  C7  <0> d  11     -19.099  13.196 -10.845  0.00  0.00     0.271 A 
ATOM      2  C8  <0> d  11     -19.047  12.344  -9.724  0.00  0.00     0.044 A 
ATOM      3  C9  <0> d  11     -18.779  13.108  -8.627  0.00  0.00     0.070 A 
ATOM      4  H1  <0> d  11     -18.462  15.175  -8.469  0.00  0.00     0.187 HD
ATOM      5  N1  <0> d  11     -18.861  14.453 -10.424  0.00  0.00    -0.252 N 
ATOM      6  N2  <0> d  11     -18.654  14.414  -9.039  0.00  0.00    -0.294 N 
ATOM      7  O1  <0> d  11     -19.323  12.855 -11.994  0.00  0.00    -0.266 OA
ENDROOT
BRANCH   5   8
ATOM      8  C4  <0> d  11     -18.822  15.651 -11.267  0.00  0.00     0.115 C 
ATOM      9  C3  <0> d  11     -19.989  16.572 -10.902  0.00  0.00     0.055 C 
ATOM     10  C2  <0> d  11     -19.908  17.848 -11.743  0.00  0.00     0.236 C 
ATOM     11  N3  <0> d  11     -18.628  18.530 -11.460  0.00  0.00    -0.075 N 
ATOM     12  C1  <0> d  11     -18.575  19.822 -12.174  0.00  0.00     0.269 C 
ATOM     13  C6  <0> d  11     -17.495  17.676 -11.877  0.00  0.00     0.236 C 
ATOM     14  H26 <0> d  11     -18.560  18.704 -10.450  0.00  0.00     0.279 HD
ATOM     15  C5  <0> d  11     -17.504  16.396 -11.039  0.00  0.00     0.055 C 
ENDBRANCH   5   8
BRANCH   3  16
ATOM     16  C10 <0> d  11     -18.643  12.617  -7.240  0.00  0.00    -0.007 A 
ATOM     17  C15 <0> d  11     -19.721  12.703  -6.357  0.00  0.00     0.014 A 
ATOM     18  C14 <0> d  11     -19.587  12.243  -5.064  0.00  0.00     0.001 A 
ATOM     19  C13 <0> d  11     -18.387  11.699  -4.640  0.00  0.00     0.000 A 
ATOM     20  C12 <0> d  11     -17.315  11.611  -5.509  0.00  0.00     0.001 A 
ATOM     21  C11 <0> d  11     -17.437  12.062  -6.808  0.00  0.00     0.014 A 
ENDBRANCH   3  16
BRANCH   2  22
ATOM     22  C16 <0> d  11     -19.255  10.851  -9.734  0.00  0.00     0.085 C 
BRANCH  22  23
ATOM     23  C17 <0> d  11     -20.717  10.550  -9.939  0.00  0.00    -0.054 A 
ATOM     24  C22 <0> d  11     -21.636  10.883  -8.962  0.00  0.00     0.007 A 
ATOM     25  C21 <0> d  11     -22.978  10.607  -9.151  0.00  0.00     0.001 A 
ATOM     26  C20 <0> d  11     -23.400   9.999 -10.318  0.00  0.00     0.000 A 
ATOM     27  C19 <0> d  11     -22.482   9.670 -11.297  0.00  0.00     0.001 A 
ATOM     28  C18 <0> d  11     -21.140   9.941 -11.106  0.00  0.00     0.007 A 
ENDBRANCH  22  23
ENDBRANCH   2  22
TORSDOF 4
ENDMDL
