REMARK INTER + INTRA:          -9.657
REMARK INTER:                  -8.059
REMARK INTRA:                  -1.598
REMARK UNBOUND:                -1.555
REMARK  4 active torsions:
REMARK  status: ('A' for Active; 'I' for Inactive)
REMARK    1  A    between atoms: C4_4  and  N1_25 
REMARK    2  A    between atoms: C8_8  and  C16_16 
REMARK    3  A    between atoms: C9_9  and  C10_10 
REMARK    4  A    between atoms: C16_16  and  C17_17 
ROOT
ATOM      1  C7  <0> d  11     -19.494  14.128 -11.814  0.00  0.00     0.271 A 
ATOM      2  C8  <0> d  11     -20.773  13.609 -12.104  0.00  0.00     0.044 A 
ATOM      3  C9  <0> d  11     -21.695  14.564 -11.796  0.00  0.00     0.070 A 
ATOM      4  H1  <0> d  11     -21.428  16.492 -11.013  0.00  0.00     0.187 HD
ATOM      5  N1  <0> d  11     -19.652  15.377 -11.334  0.00  0.00    -0.252 N 
ATOM      6  N2  <0> d  11     -21.023  15.664 -11.312  0.00  0.00    -0.294 N 
ATOM      7  O1  <0> d  11     -18.434  13.549 -11.972  0.00  0.00    -0.266 OA
ENDROOT
BRANCH   5   8
ATOM      8  C4  <0> d  11     -18.577  16.277 -10.907  0.00  0.00     0.115 C 
ATOM      9  C3  <0> d  11     -19.035  17.730 -11.064  0.00  0.00     0.055 C 
ATOM     10  C2  <0> d  11     -17.933  18.664 -10.559  0.00  0.00     0.236 C 
ATOM     11  N3  <0> d  11     -17.674  18.375  -9.133  0.00  0.00    -0.075 N 
ATOM     12  C1  <0> d  11     -16.694  19.340  -8.592  0.00  0.00     0.269 C 
ATOM     13  C6  <0> d  11     -17.162  16.996  -8.979  0.00  0.00     0.236 C 
ATOM     14  H26 <0> d  11     -18.554  18.463  -8.610  0.00  0.00     0.279 HD
ATOM     15  C5  <0> d  11     -18.242  16.012  -9.436  0.00  0.00     0.055 C 
ENDBRANCH   5   8
BRANCH   3  16
ATOM     16  C10 <0> d  11     -23.159  14.440 -11.951  0.00  0.00    -0.007 A 
ATOM     17  C15 <0> d  11     -23.927  13.879 -10.928  0.00  0.00     0.014 A 
ATOM     18  C14 <0> d  11     -25.293  13.766 -11.080  0.00  0.00     0.001 A 
ATOM     19  C13 <0> d  11     -25.903  14.206 -12.242  0.00  0.00     0.000 A 
ATOM     20  C12 <0> d  11     -25.148  14.763 -13.259  0.00  0.00     0.001 A 
ATOM     21  C11 <0> d  11     -23.780  14.887 -13.118  0.00  0.00     0.014 A 
ENDBRANCH   3  16
BRANCH   2  22
ATOM     22  C16 <0> d  11     -21.068  12.240 -12.662  0.00  0.00     0.085 C 
BRANCH  22  23
ATOM     23  C17 <0> d  11     -21.426  11.306 -11.534  0.00  0.00    -0.054 A 
ATOM     24  C22 <0> d  11     -22.619  10.608 -11.567  0.00  0.00     0.007 A 
ATOM     25  C21 <0> d  11     -22.947   9.751 -10.533  0.00  0.00     0.001 A 
ATOM     26  C20 <0> d  11     -22.082   9.591  -9.468  0.00  0.00     0.000 A 
ATOM     27  C19 <0> d  11     -20.887  10.286  -9.436  0.00  0.00     0.001 A 
ATOM     28  C18 <0> d  11     -20.561  11.146 -10.468  0.00  0.00     0.007 A 
ENDBRANCH  22  23
ENDBRANCH   2  22
TORSDOF 4
ENDMDL
