REMARK INTER + INTRA:          -7.008
REMARK INTER:                  -6.515
REMARK INTRA:                  -0.493
REMARK UNBOUND:                -0.657
REMARK  2 active torsions:
REMARK  status: ('A' for Active; 'I' for Inactive)
REMARK    1  A    between atoms: C4_4  and  C6_6 
REMARK    2  A    between atoms: C6_6  and  N1_20 
ROOT
ATOM      1  C7  <0> d  11     -19.643  12.077  -8.157  0.00  0.00     0.052 A 
ATOM      2  C8  <0> d  11     -18.339  12.104  -7.691  0.00  0.00     0.031 A 
ATOM      3  C9  <0> d  11     -18.090  12.226  -6.336  0.00  0.00     0.002 A 
ATOM      4  C10 <0> d  11     -19.135  12.320  -5.438  0.00  0.00     0.002 A 
ATOM      5  C11 <0> d  11     -20.445  12.295  -5.892  0.00  0.00     0.021 A 
ATOM      6  C12 <0> d  11     -20.698  12.175  -7.245  0.00  0.00     0.032 A 
ATOM      7  C13 <0> d  11     -22.194  11.182  -9.329  0.00  0.00     0.032 A 
ATOM      8  C14 <0> d  11     -20.974  11.193 -10.009  0.00  0.00     0.052 A 
ATOM      9  C15 <0> d  11     -20.837  10.446 -11.168  0.00  0.00     0.031 A 
ATOM     10  C16 <0> d  11     -21.901   9.698 -11.639  0.00  0.00     0.002 A 
ATOM     11  C17 <0> d  11     -23.106   9.690 -10.962  0.00  0.00     0.002 A 
ATOM     12  C18 <0> d  11     -23.254  10.433  -9.803  0.00  0.00     0.021 A 
ATOM     13  N1  <0> d  11     -19.902  11.952  -9.526  0.00  0.00    -0.344 N 
ATOM     14  S1  <0> d  11     -22.355  12.140  -7.854  0.00  0.00    -0.086 SA
ENDROOT
BRANCH  13  15
ATOM     15  C6  <0> d  11     -19.025  12.632 -10.482  0.00  0.00     0.136 C 
BRANCH  15  16
ATOM     16  C4  <0> d  11     -19.185  14.146 -10.334  0.00  0.00     0.031 C 
ATOM     17  C3  <0> d  11     -18.270  14.895 -11.338  0.00  0.00     0.035 C 
ATOM     18  C2  <0> d  11     -19.030  16.233 -11.517  0.00  0.00     0.234 C 
ATOM     19  N2  <0> d  11     -20.455  15.848 -11.506  0.00  0.00    -0.074 N 
ATOM     20  C1  <0> d  11     -21.269  16.918 -10.871  0.00  0.00     0.269 C 
ATOM     21  C5  <0> d  11     -20.602  14.589 -10.759  0.00  0.00     0.240 C 
ATOM     22  H21 <0> d  11     -20.778  15.710 -12.471  0.00  0.00     0.279 HD
ENDBRANCH  15  16
ENDBRANCH  13  15
TORSDOF 2
ENDMDL
