REMARK INTER + INTRA:         -10.275
REMARK INTER:                  -8.726
REMARK INTRA:                  -1.550
REMARK UNBOUND:                -1.555
REMARK  4 active torsions:
REMARK  status: ('A' for Active; 'I' for Inactive)
REMARK    1  A    between atoms: C4_4  and  N1_25 
REMARK    2  A    between atoms: C8_8  and  C16_16 
REMARK    3  A    between atoms: C9_9  and  C10_10 
REMARK    4  A    between atoms: C16_16  and  C17_17 
ROOT
ATOM      1  C7  <0> d  11     -24.951  13.797 -11.865  0.00  0.00     0.271 A 
ATOM      2  C8  <0> d  11     -23.683  13.617 -11.275  0.00  0.00     0.044 A 
ATOM      3  C9  <0> d  11     -22.761  14.243 -12.060  0.00  0.00     0.070 A 
ATOM      4  H1  <0> d  11     -23.015  15.308 -13.850  0.00  0.00     0.187 HD
ATOM      5  N1  <0> d  11     -24.787  14.518 -12.991  0.00  0.00    -0.252 N 
ATOM      6  N2  <0> d  11     -23.422  14.802 -13.130  0.00  0.00    -0.294 N 
ATOM      7  O1  <0> d  11     -26.009  13.375 -11.431  0.00  0.00    -0.266 OA
ENDROOT
BRANCH   5   8
ATOM      8  C4  <0> d  11     -25.850  14.932 -13.911  0.00  0.00     0.115 C 
ATOM      9  C3  <0> d  11     -26.710  16.010 -13.246  0.00  0.00     0.055 C 
ATOM     10  C2  <0> d  11     -27.781  16.482 -14.233  0.00  0.00     0.236 C 
ATOM     11  N3  <0> d  11     -27.117  17.041 -15.430  0.00  0.00    -0.075 N 
ATOM     12  C1  <0> d  11     -28.127  17.607 -16.348  0.00  0.00     0.269 C 
ATOM     13  C6  <0> d  11     -26.341  15.989 -16.120  0.00  0.00     0.236 C 
ATOM     14  H26 <0> d  11     -26.476  17.788 -15.137  0.00  0.00     0.279 HD
ATOM     15  C5  <0> d  11     -25.228  15.502 -15.189  0.00  0.00     0.055 C 
ENDBRANCH   5   8
BRANCH   3  16
ATOM     16  C10 <0> d  11     -21.307  14.308 -11.807  0.00  0.00    -0.007 A 
ATOM     17  C15 <0> d  11     -20.454  13.360 -12.376  0.00  0.00     0.014 A 
ATOM     18  C14 <0> d  11     -19.097  13.427 -12.136  0.00  0.00     0.001 A 
ATOM     19  C13 <0> d  11     -18.581  14.429 -11.333  0.00  0.00     0.000 A 
ATOM     20  C12 <0> d  11     -19.421  15.372 -10.767  0.00  0.00     0.001 A 
ATOM     21  C11 <0> d  11     -20.779  15.320 -11.004  0.00  0.00     0.014 A 
ENDBRANCH   3  16
BRANCH   2  22
ATOM     22  C16 <0> d  11     -23.397  12.868  -9.999  0.00  0.00     0.085 C 
BRANCH  22  23
ATOM     23  C17 <0> d  11     -22.506  11.689 -10.298  0.00  0.00    -0.054 A 
ATOM     24  C22 <0> d  11     -22.836  10.813 -11.315  0.00  0.00     0.007 A 
ATOM     25  C21 <0> d  11     -22.018   9.733 -11.589  0.00  0.00     0.001 A 
ATOM     26  C20 <0> d  11     -20.871   9.529 -10.847  0.00  0.00     0.000 A 
ATOM     27  C19 <0> d  11     -20.538  10.408  -9.833  0.00  0.00     0.001 A 
ATOM     28  C18 <0> d  11     -21.358  11.486  -9.555  0.00  0.00     0.007 A 
ENDBRANCH  22  23
ENDBRANCH   2  22
TORSDOF 4
ENDMDL
