MODEL 1
REMARK VINA RESULT:    -6.099      0.000      0.000
REMARK INTER + INTRA:          -7.444
REMARK INTER:                  -6.946
REMARK INTRA:                  -0.498
REMARK UNBOUND:                -0.631
REMARK  2 active torsions:
REMARK  status: ('A' for Active; 'I' for Inactive)
REMARK    1  A    between atoms: C4_4  and  C6_6 
REMARK    2  A    between atoms: C6_6  and  N1_20 
ROOT
ATOM      1  C7  <0> d  11     -21.051  11.400 -10.539  0.00  0.00     0.052 A 
ATOM      2  C8  <0> d  11     -20.896  10.042 -10.765  0.00  0.00     0.031 A 
ATOM      3  C9  <0> d  11     -21.991   9.266 -11.099  0.00  0.00     0.002 A 
ATOM      4  C10 <0> d  11     -23.245   9.836 -11.210  0.00  0.00     0.002 A 
ATOM      5  C11 <0> d  11     -23.413  11.193 -10.985  0.00  0.00     0.021 A 
ATOM      6  C12 <0> d  11     -22.322  11.971 -10.650  0.00  0.00     0.032 A 
ATOM      7  C13 <0> d  11     -20.917  14.331 -10.809  0.00  0.00     0.032 A 
ATOM      8  C14 <0> d  11     -19.802  13.498 -10.681  0.00  0.00     0.052 A 
ATOM      9  C15 <0> d  11     -18.551  13.981 -11.031  0.00  0.00     0.031 A 
ATOM     10  C16 <0> d  11     -18.415  15.274 -11.504  0.00  0.00     0.002 A 
ATOM     11  C17 <0> d  11     -19.521  16.094 -11.629  0.00  0.00     0.002 A 
ATOM     12  C18 <0> d  11     -20.776  15.622 -11.281  0.00  0.00     0.021 A 
ATOM     13  N1  <0> d  11     -19.947  12.191 -10.203  0.00  0.00    -0.344 N 
ATOM     14  S1  <0> d  11     -22.504  13.703 -10.357  0.00  0.00    -0.086 SA
ENDROOT
BRANCH  13  15
ATOM     15  C6  <0> d  11     -18.912  11.635  -9.328  0.00  0.00     0.136 C 
BRANCH  15  16
ATOM     16  C4  <0> d  11     -18.832  12.463  -8.044  0.00  0.00     0.031 C 
ATOM     17  C3  <0> d  11     -20.118  12.286  -7.195  0.00  0.00     0.035 C 
ATOM     18  C2  <0> d  11     -19.595  12.584  -5.767  0.00  0.00     0.234 C 
ATOM     19  N2  <0> d  11     -18.245  11.984  -5.740  0.00  0.00    -0.074 N 
ATOM     20  C1  <0> d  11     -17.341  12.797  -4.885  0.00  0.00     0.269 C 
ATOM     21  C5  <0> d  11     -17.724  11.923  -7.115  0.00  0.00     0.240 C 
ATOM     22  H21 <0> d  11     -18.304  11.034  -5.356  0.00  0.00     0.279 HD
ENDBRANCH  15  16
ENDBRANCH  13  15
TORSDOF 2
ENDMDL
MODEL 2
REMARK VINA RESULT:    -5.724      1.454      5.375
REMARK INTER + INTRA:          -7.024
REMARK INTER:                  -6.531
REMARK INTRA:                  -0.494
REMARK UNBOUND:                -0.631
REMARK  2 active torsions:
REMARK  status: ('A' for Active; 'I' for Inactive)
REMARK    1  A    between atoms: C4_4  and  C6_6 
REMARK    2  A    between atoms: C6_6  and  N1_20 
ROOT
ATOM      1  C7  <0> d  11     -19.541  12.054  -8.171  0.00  0.00     0.052 A 
ATOM      2  C8  <0> d  11     -18.214  12.102  -7.773  0.00  0.00     0.031 A 
ATOM      3  C9  <0> d  11     -17.898  12.239  -6.433  0.00  0.00     0.002 A 
ATOM      4  C10 <0> d  11     -18.897  12.328  -5.483  0.00  0.00     0.002 A 
ATOM      5  C11 <0> d  11     -20.228  12.282  -5.870  0.00  0.00     0.021 A 
ATOM      6  C12 <0> d  11     -20.548  12.146  -7.206  0.00  0.00     0.032 A 
ATOM      7  C13 <0> d  11     -22.136  11.115  -9.202  0.00  0.00     0.032 A 
ATOM      8  C14 <0> d  11     -20.953  11.136  -9.945  0.00  0.00     0.052 A 
ATOM      9  C15 <0> d  11     -20.865  10.380 -11.103  0.00  0.00     0.031 A 
ATOM     10  C16 <0> d  11     -21.942   9.614 -11.512  0.00  0.00     0.002 A 
ATOM     11  C17 <0> d  11     -23.110   9.596 -10.774  0.00  0.00     0.002 A 
ATOM     12  C18 <0> d  11     -23.209  10.348  -9.615  0.00  0.00     0.021 A 
ATOM     13  N1  <0> d  11     -19.867  11.913  -9.523  0.00  0.00    -0.344 N 
ATOM     14  S1  <0> d  11     -22.233  12.084  -7.729  0.00  0.00    -0.086 SA
ENDROOT
BRANCH  13  15
ATOM     15  C6  <0> d  11     -19.049  12.596 -10.529  0.00  0.00     0.136 C 
BRANCH  15  16
ATOM     16  C4  <0> d  11     -19.189  14.109 -10.356  0.00  0.00     0.031 C 
ATOM     17  C3  <0> d  11     -18.282  14.863 -11.364  0.00  0.00     0.035 C 
ATOM     18  C2  <0> d  11     -19.030  16.212 -11.511  0.00  0.00     0.234 C 
ATOM     19  N2  <0> d  11     -20.459  15.843 -11.480  0.00  0.00    -0.074 N 
ATOM     20  C1  <0> d  11     -21.250  16.913 -10.816  0.00  0.00     0.269 C 
ATOM     21  C5  <0> d  11     -20.607  14.574 -10.750  0.00  0.00     0.240 C 
ATOM     22  H21 <0> d  11     -20.799  15.724 -12.441  0.00  0.00     0.279 HD
ENDBRANCH  15  16
ENDBRANCH  13  15
TORSDOF 2
ENDMDL
MODEL 3
REMARK VINA RESULT:    -5.682      2.457      3.969
REMARK INTER + INTRA:          -6.978
REMARK INTER:                  -6.456
REMARK INTRA:                  -0.521
REMARK UNBOUND:                -0.631
REMARK  2 active torsions:
REMARK  status: ('A' for Active; 'I' for Inactive)
REMARK    1  A    between atoms: C4_4  and  C6_6 
REMARK    2  A    between atoms: C6_6  and  N1_20 
ROOT
ATOM      1  C7  <0> d  11     -22.373  11.859 -11.424  0.00  0.00     0.052 A 
ATOM      2  C8  <0> d  11     -21.622  10.841 -11.989  0.00  0.00     0.031 A 
ATOM      3  C9  <0> d  11     -21.773   9.540 -11.543  0.00  0.00     0.002 A 
ATOM      4  C10 <0> d  11     -22.672   9.245 -10.536  0.00  0.00     0.002 A 
ATOM      5  C11 <0> d  11     -23.428  10.255  -9.963  0.00  0.00     0.021 A 
ATOM      6  C12 <0> d  11     -23.279  11.556 -10.404  0.00  0.00     0.032 A 
ATOM      7  C13 <0> d  11     -24.341  14.016 -11.028  0.00  0.00     0.032 A 
ATOM      8  C14 <0> d  11     -23.317  14.046 -11.979  0.00  0.00     0.052 A 
ATOM      9  C15 <0> d  11     -23.394  14.946 -13.030  0.00  0.00     0.031 A 
ATOM     10  C16 <0> d  11     -24.477  15.802 -13.130  0.00  0.00     0.002 A 
ATOM     11  C17 <0> d  11     -25.486  15.768 -12.186  0.00  0.00     0.002 A 
ATOM     12  C18 <0> d  11     -25.419  14.873 -11.132  0.00  0.00     0.021 A 
ATOM     13  N1  <0> d  11     -22.226  13.176 -11.871  0.00  0.00    -0.344 N 
ATOM     14  S1  <0> d  11     -24.228  12.864  -9.693  0.00  0.00    -0.086 SA
ENDROOT
BRANCH  13  15
ATOM     15  C6  <0> d  11     -20.893  13.659 -12.240  0.00  0.00     0.136 C 
BRANCH  15  16
ATOM     16  C4  <0> d  11     -20.331  14.517 -11.106  0.00  0.00     0.031 C 
ATOM     17  C3  <0> d  11     -20.022  13.646  -9.860  0.00  0.00     0.035 C 
ATOM     18  C2  <0> d  11     -18.909  14.472  -9.167  0.00  0.00     0.234 C 
ATOM     19  N2  <0> d  11     -18.102  15.006 -10.282  0.00  0.00    -0.074 N 
ATOM     20  C1  <0> d  11     -17.579  16.354  -9.935  0.00  0.00     0.269 C 
ATOM     21  C5  <0> d  11     -18.946  15.084 -11.485  0.00  0.00     0.240 C 
ATOM     22  H21 <0> d  11     -17.312  14.376 -10.461  0.00  0.00     0.279 HD
ENDBRANCH  15  16
ENDBRANCH  13  15
TORSDOF 2
ENDMDL
MODEL 4
REMARK VINA RESULT:    -5.549      1.595      2.257
REMARK INTER + INTRA:          -6.829
REMARK INTER:                  -6.198
REMARK INTRA:                  -0.631
REMARK UNBOUND:                -0.631
REMARK  2 active torsions:
REMARK  status: ('A' for Active; 'I' for Inactive)
REMARK    1  A    between atoms: C4_4  and  C6_6 
REMARK    2  A    between atoms: C6_6  and  N1_20 
ROOT
ATOM      1  C7  <0> d  11     -21.924  11.932 -10.998  0.00  0.00     0.052 A 
ATOM      2  C8  <0> d  11     -21.255  10.849 -11.545  0.00  0.00     0.031 A 
ATOM      3  C9  <0> d  11     -21.888   9.624 -11.649  0.00  0.00     0.002 A 
ATOM      4  C10 <0> d  11     -23.189   9.469 -11.210  0.00  0.00     0.002 A 
ATOM      5  C11 <0> d  11     -23.868  10.545 -10.660  0.00  0.00     0.021 A 
ATOM      6  C12 <0> d  11     -23.239  11.769 -10.553  0.00  0.00     0.032 A 
ATOM      7  C13 <0> d  11     -23.297  14.518 -10.670  0.00  0.00     0.032 A 
ATOM      8  C14 <0> d  11     -21.976  14.375 -11.102  0.00  0.00     0.052 A 
ATOM      9  C15 <0> d  11     -21.353  15.435 -11.741  0.00  0.00     0.031 A 
ATOM     10  C16 <0> d  11     -22.039  16.618 -11.947  0.00  0.00     0.002 A 
ATOM     11  C17 <0> d  11     -23.346  16.755 -11.517  0.00  0.00     0.002 A 
ATOM     12  C18 <0> d  11     -23.978  15.702 -10.877  0.00  0.00     0.021 A 
ATOM     13  N1  <0> d  11     -21.289  13.174 -10.892  0.00  0.00    -0.344 N 
ATOM     14  S1  <0> d  11     -24.078  13.158  -9.856  0.00  0.00    -0.086 SA
ENDROOT
BRANCH  13  15
ATOM     15  C6  <0> d  11     -19.865  13.220 -10.553  0.00  0.00     0.136 C 
BRANCH  15  16
ATOM     16  C4  <0> d  11     -19.690  12.981  -9.052  0.00  0.00     0.031 C 
ATOM     17  C3  <0> d  11     -18.806  11.733  -8.793  0.00  0.00     0.035 C 
ATOM     18  C2  <0> d  11     -18.213  12.053  -7.398  0.00  0.00     0.234 C 
ATOM     19  N2  <0> d  11     -17.965  13.508  -7.431  0.00  0.00    -0.074 N 
ATOM     20  C1  <0> d  11     -18.187  14.095  -6.083  0.00  0.00     0.269 C 
ATOM     21  C5  <0> d  11     -18.877  14.124  -8.409  0.00  0.00     0.240 C 
ATOM     22  H21 <0> d  11     -16.994  13.681  -7.715  0.00  0.00     0.279 HD
ENDBRANCH  15  16
ENDBRANCH  13  15
TORSDOF 2
ENDMDL
MODEL 5
REMARK VINA RESULT:    -5.481      2.620      6.477
REMARK INTER + INTRA:          -6.754
REMARK INTER:                  -6.105
REMARK INTRA:                  -0.648
REMARK UNBOUND:                -0.631
REMARK  2 active torsions:
REMARK  status: ('A' for Active; 'I' for Inactive)
REMARK    1  A    between atoms: C4_4  and  C6_6 
REMARK    2  A    between atoms: C6_6  and  N1_20 
ROOT
ATOM      1  C7  <0> d  11     -20.130  14.107 -10.833  0.00  0.00     0.052 A 
ATOM      2  C8  <0> d  11     -19.452  15.036 -11.605  0.00  0.00     0.031 A 
ATOM      3  C9  <0> d  11     -18.484  15.841 -11.030  0.00  0.00     0.002 A 
ATOM      4  C10 <0> d  11     -18.187  15.725  -9.686  0.00  0.00     0.002 A 
ATOM      5  C11 <0> d  11     -18.859  14.800  -8.903  0.00  0.00     0.021 A 
ATOM      6  C12 <0> d  11     -19.826  13.995  -9.473  0.00  0.00     0.032 A 
ATOM      7  C13 <0> d  11     -21.108  11.571  -9.695  0.00  0.00     0.032 A 
ATOM      8  C14 <0> d  11     -21.268  11.951 -11.031  0.00  0.00     0.052 A 
ATOM      9  C15 <0> d  11     -21.589  10.990 -11.976  0.00  0.00     0.031 A 
ATOM     10  C16 <0> d  11     -21.746   9.669 -11.594  0.00  0.00     0.002 A 
ATOM     11  C17 <0> d  11     -21.586   9.298 -10.271  0.00  0.00     0.002 A 
ATOM     12  C18 <0> d  11     -21.266  10.251  -9.318  0.00  0.00     0.021 A 
ATOM     13  N1  <0> d  11     -21.107  13.289 -11.409  0.00  0.00    -0.344 N 
ATOM     14  S1  <0> d  11     -20.700  12.808  -8.502  0.00  0.00    -0.086 SA
ENDROOT
BRANCH  13  15
ATOM     15  C6  <0> d  11     -21.986  13.846 -12.440  0.00  0.00     0.136 C 
BRANCH  15  16
ATOM     16  C4  <0> d  11     -23.105  14.649 -11.774  0.00  0.00     0.031 C 
ATOM     17  C3  <0> d  11     -23.218  16.062 -12.406  0.00  0.00     0.035 C 
ATOM     18  C2  <0> d  11     -24.704  16.409 -12.135  0.00  0.00     0.234 C 
ATOM     19  N2  <0> d  11     -25.418  15.130 -12.324  0.00  0.00    -0.074 N 
ATOM     20  C1  <0> d  11     -26.571  15.045 -11.390  0.00  0.00     0.269 C 
ATOM     21  C5  <0> d  11     -24.482  14.021 -12.078  0.00  0.00     0.240 C 
ATOM     22  H21 <0> d  11     -25.764  15.075 -13.289  0.00  0.00     0.279 HD
ENDBRANCH  15  16
ENDBRANCH  13  15
TORSDOF 2
ENDMDL
