REMARK INTER + INTRA:          -6.989
REMARK INTER:                  -6.478
REMARK INTRA:                  -0.511
REMARK UNBOUND:                -0.657
REMARK  2 active torsions:
REMARK  status: ('A' for Active; 'I' for Inactive)
REMARK    1  A    between atoms: C4_4  and  C6_6 
REMARK    2  A    between atoms: C6_6  and  N1_20 
ROOT
ATOM      1  C7  <0> d  11     -22.337  11.855 -11.413  0.00  0.00     0.052 A 
ATOM      2  C8  <0> d  11     -21.590  10.832 -11.975  0.00  0.00     0.031 A 
ATOM      3  C9  <0> d  11     -21.741   9.534 -11.520  0.00  0.00     0.002 A 
ATOM      4  C10 <0> d  11     -22.634   9.248 -10.505  0.00  0.00     0.002 A 
ATOM      5  C11 <0> d  11     -23.386  10.263  -9.935  0.00  0.00     0.021 A 
ATOM      6  C12 <0> d  11     -23.238  11.560 -10.386  0.00  0.00     0.032 A 
ATOM      7  C13 <0> d  11     -24.299  14.018 -11.021  0.00  0.00     0.032 A 
ATOM      8  C14 <0> d  11     -23.281  14.039 -11.978  0.00  0.00     0.052 A 
ATOM      9  C15 <0> d  11     -23.363  14.932 -13.035  0.00  0.00     0.031 A 
ATOM     10  C16 <0> d  11     -24.445  15.789 -13.135  0.00  0.00     0.002 A 
ATOM     11  C17 <0> d  11     -25.449  15.763 -12.185  0.00  0.00     0.002 A 
ATOM     12  C18 <0> d  11     -25.377  14.875 -11.125  0.00  0.00     0.021 A 
ATOM     13  N1  <0> d  11     -22.191  13.169 -11.871  0.00  0.00    -0.344 N 
ATOM     14  S1  <0> d  11     -24.181  12.875  -9.679  0.00  0.00    -0.086 SA
ENDROOT
BRANCH  13  15
ATOM     15  C6  <0> d  11     -20.859  13.647 -12.251  0.00  0.00     0.136 C 
BRANCH  15  16
ATOM     16  C4  <0> d  11     -20.307  14.549 -11.145  0.00  0.00     0.031 C 
ATOM     17  C3  <0> d  11     -20.095  13.743  -9.836  0.00  0.00     0.035 C 
ATOM     18  C2  <0> d  11     -18.977  14.562  -9.144  0.00  0.00     0.234 C 
ATOM     19  N2  <0> d  11     -18.096  14.988 -10.250  0.00  0.00    -0.074 N 
ATOM     20  C1  <0> d  11     -17.525  16.330  -9.961  0.00  0.00     0.269 C 
ATOM     21  C5  <0> d  11     -18.881  15.027 -11.493  0.00  0.00     0.240 C 
ATOM     22  H21 <0> d  11     -17.329  14.313 -10.353  0.00  0.00     0.279 HD
ENDBRANCH  15  16
ENDBRANCH  13  15
TORSDOF 2
ENDMDL
