REMARK INTER + INTRA:          -7.444
REMARK INTER:                  -6.946
REMARK INTRA:                  -0.498
REMARK UNBOUND:                -0.631
REMARK  2 active torsions:
REMARK  status: ('A' for Active; 'I' for Inactive)
REMARK    1  A    between atoms: C4_4  and  C6_6 
REMARK    2  A    between atoms: C6_6  and  N1_20 
ROOT
ATOM      1  C7  <0> d  11     -21.051  11.400 -10.539  0.00  0.00     0.052 A 
ATOM      2  C8  <0> d  11     -20.896  10.042 -10.765  0.00  0.00     0.031 A 
ATOM      3  C9  <0> d  11     -21.991   9.266 -11.099  0.00  0.00     0.002 A 
ATOM      4  C10 <0> d  11     -23.245   9.836 -11.210  0.00  0.00     0.002 A 
ATOM      5  C11 <0> d  11     -23.413  11.193 -10.985  0.00  0.00     0.021 A 
ATOM      6  C12 <0> d  11     -22.322  11.971 -10.650  0.00  0.00     0.032 A 
ATOM      7  C13 <0> d  11     -20.917  14.331 -10.809  0.00  0.00     0.032 A 
ATOM      8  C14 <0> d  11     -19.802  13.498 -10.681  0.00  0.00     0.052 A 
ATOM      9  C15 <0> d  11     -18.551  13.981 -11.031  0.00  0.00     0.031 A 
ATOM     10  C16 <0> d  11     -18.415  15.274 -11.504  0.00  0.00     0.002 A 
ATOM     11  C17 <0> d  11     -19.521  16.094 -11.629  0.00  0.00     0.002 A 
ATOM     12  C18 <0> d  11     -20.776  15.622 -11.281  0.00  0.00     0.021 A 
ATOM     13  N1  <0> d  11     -19.947  12.191 -10.203  0.00  0.00    -0.344 N 
ATOM     14  S1  <0> d  11     -22.504  13.703 -10.357  0.00  0.00    -0.086 SA
ENDROOT
BRANCH  13  15
ATOM     15  C6  <0> d  11     -18.912  11.635  -9.328  0.00  0.00     0.136 C 
BRANCH  15  16
ATOM     16  C4  <0> d  11     -18.832  12.463  -8.044  0.00  0.00     0.031 C 
ATOM     17  C3  <0> d  11     -20.118  12.286  -7.195  0.00  0.00     0.035 C 
ATOM     18  C2  <0> d  11     -19.595  12.584  -5.767  0.00  0.00     0.234 C 
ATOM     19  N2  <0> d  11     -18.245  11.984  -5.740  0.00  0.00    -0.074 N 
ATOM     20  C1  <0> d  11     -17.341  12.797  -4.885  0.00  0.00     0.269 C 
ATOM     21  C5  <0> d  11     -17.724  11.923  -7.115  0.00  0.00     0.240 C 
ATOM     22  H21 <0> d  11     -18.304  11.034  -5.356  0.00  0.00     0.279 HD
ENDBRANCH  15  16
ENDBRANCH  13  15
TORSDOF 2
ENDMDL
