REMARK INTER + INTRA:          -9.611
REMARK INTER:                  -8.031
REMARK INTRA:                  -1.580
REMARK UNBOUND:                -1.580
REMARK  4 active torsions:
REMARK  status: ('A' for Active; 'I' for Inactive)
REMARK    1  A    between atoms: C4_4  and  N1_25 
REMARK    2  A    between atoms: C8_8  and  C16_16 
REMARK    3  A    between atoms: C9_9  and  C10_10 
REMARK    4  A    between atoms: C16_16  and  C17_17 
ROOT
ATOM      1  C7  <0> d  11     -19.513  14.089 -11.770  0.00  0.00     0.271 A 
ATOM      2  C8  <0> d  11     -20.793  13.595 -12.092  0.00  0.00     0.044 A 
ATOM      3  C9  <0> d  11     -21.706  14.561 -11.786  0.00  0.00     0.070 A 
ATOM      4  H1  <0> d  11     -21.422  16.472 -10.969  0.00  0.00     0.187 HD
ATOM      5  N1  <0> d  11     -19.659  15.332 -11.273  0.00  0.00    -0.252 N 
ATOM      6  N2  <0> d  11     -21.025  15.641 -11.273  0.00  0.00    -0.294 N 
ATOM      7  O1  <0> d  11     -18.459  13.494 -11.917  0.00  0.00    -0.266 OA
ENDROOT
BRANCH   5   8
ATOM      8  C4  <0> d  11     -18.578  16.208 -10.812  0.00  0.00     0.115 C 
ATOM      9  C3  <0> d  11     -18.838  17.638 -11.291  0.00  0.00     0.055 C 
ATOM     10  C2  <0> d  11     -17.739  18.559 -10.755  0.00  0.00     0.236 C 
ATOM     11  N3  <0> d  11     -17.755  18.516  -9.278  0.00  0.00    -0.075 N 
ATOM     12  C1  <0> d  11     -16.778  19.483  -8.735  0.00  0.00     0.269 C 
ATOM     13  C6  <0> d  11     -17.432  17.153  -8.806  0.00  0.00     0.236 C 
ATOM     14  H26 <0> d  11     -18.693  18.770  -8.948  0.00  0.00     0.279 HD
ATOM     15  C5  <0> d  11     -18.523  16.191  -9.283  0.00  0.00     0.055 C 
ENDBRANCH   5   8
BRANCH   3  16
ATOM     16  C10 <0> d  11     -23.168  14.463 -11.971  0.00  0.00    -0.007 A 
ATOM     17  C15 <0> d  11     -23.966  13.910 -10.967  0.00  0.00     0.014 A 
ATOM     18  C14 <0> d  11     -25.331  13.822 -11.146  0.00  0.00     0.001 A 
ATOM     19  C13 <0> d  11     -25.909  14.280 -12.317  0.00  0.00     0.000 A 
ATOM     20  C12 <0> d  11     -25.125  14.830 -13.315  0.00  0.00     0.001 A 
ATOM     21  C11 <0> d  11     -23.759  14.929 -13.146  0.00  0.00     0.014 A 
ENDBRANCH   3  16
BRANCH   2  22
ATOM     22  C16 <0> d  11     -21.101  12.240 -12.676  0.00  0.00     0.085 C 
BRANCH  22  23
ATOM     23  C17 <0> d  11     -21.484  11.292 -11.569  0.00  0.00    -0.054 A 
ATOM     24  C22 <0> d  11     -22.745  10.728 -11.547  0.00  0.00     0.007 A 
ATOM     25  C21 <0> d  11     -23.096   9.858 -10.532  0.00  0.00     0.001 A 
ATOM     26  C20 <0> d  11     -22.185   9.553  -9.538  0.00  0.00     0.000 A 
ATOM     27  C19 <0> d  11     -20.923  10.114  -9.561  0.00  0.00     0.001 A 
ATOM     28  C18 <0> d  11     -20.574  10.988 -10.574  0.00  0.00     0.007 A 
ENDBRANCH  22  23
ENDBRANCH   2  22
TORSDOF 4
ENDMDL
