REMARK INTER + INTRA:          -9.728
REMARK INTER:                  -8.247
REMARK INTRA:                  -1.481
REMARK UNBOUND:                -1.555
REMARK  4 active torsions:
REMARK  status: ('A' for Active; 'I' for Inactive)
REMARK    1  A    between atoms: C4_4  and  N1_25 
REMARK    2  A    between atoms: C8_8  and  C16_16 
REMARK    3  A    between atoms: C9_9  and  C10_10 
REMARK    4  A    between atoms: C16_16  and  C17_17 
ROOT
ATOM      1  C7  <0> d  11     -23.669  15.473 -11.790  0.00  0.00     0.271 A 
ATOM      2  C8  <0> d  11     -22.993  14.442 -11.107  0.00  0.00     0.044 A 
ATOM      3  C9  <0> d  11     -23.395  13.252 -11.635  0.00  0.00     0.070 A 
ATOM      4  H1  <0> d  11     -24.768  12.854 -13.171  0.00  0.00     0.187 HD
ATOM      5  N1  <0> d  11     -24.470  14.904 -12.713  0.00  0.00    -0.252 N 
ATOM      6  N2  <0> d  11     -24.313  13.515 -12.626  0.00  0.00    -0.294 N 
ATOM      7  O1  <0> d  11     -23.549  16.668 -11.584  0.00  0.00    -0.266 OA
ENDROOT
BRANCH   5   8
ATOM      8  C4  <0> d  11     -25.351  15.615 -13.643  0.00  0.00     0.115 C 
ATOM      9  C3  <0> d  11     -24.660  15.744 -15.004  0.00  0.00     0.055 C 
ATOM     10  C2  <0> d  11     -25.609  16.432 -15.988  0.00  0.00     0.236 C 
ATOM     11  N3  <0> d  11     -26.834  15.615 -16.126  0.00  0.00    -0.075 N 
ATOM     12  C1  <0> d  11     -27.716  16.199 -17.157  0.00  0.00     0.269 C 
ATOM     13  C6  <0> d  11     -27.546  15.544 -14.833  0.00  0.00     0.236 C 
ATOM     14  H26 <0> d  11     -26.569  14.664 -16.412  0.00  0.00     0.279 HD
ATOM     15  C5  <0> d  11     -26.655  14.829 -13.814  0.00  0.00     0.055 C 
ENDBRANCH   5   8
BRANCH   3  16
ATOM     16  C10 <0> d  11     -22.930  11.914 -11.215  0.00  0.00    -0.007 A 
ATOM     17  C15 <0> d  11     -23.521  11.277 -10.122  0.00  0.00     0.014 A 
ATOM     18  C14 <0> d  11     -23.082  10.028  -9.736  0.00  0.00     0.001 A 
ATOM     19  C13 <0> d  11     -22.057   9.407 -10.427  0.00  0.00     0.000 A 
ATOM     20  C12 <0> d  11     -21.467  10.032 -11.512  0.00  0.00     0.001 A 
ATOM     21  C11 <0> d  11     -21.901  11.279 -11.912  0.00  0.00     0.014 A 
ENDBRANCH   3  16
BRANCH   2  22
ATOM     22  C16 <0> d  11     -21.996  14.624  -9.990  0.00  0.00     0.085 C 
BRANCH  22  23
ATOM     23  C17 <0> d  11     -20.628  14.870 -10.575  0.00  0.00    -0.054 A 
ATOM     24  C22 <0> d  11     -20.171  16.164 -10.741  0.00  0.00     0.007 A 
ATOM     25  C21 <0> d  11     -18.916  16.390 -11.276  0.00  0.00     0.001 A 
ATOM     26  C20 <0> d  11     -18.120  15.322 -11.643  0.00  0.00     0.000 A 
ATOM     27  C19 <0> d  11     -18.575  14.028 -11.473  0.00  0.00     0.001 A 
ATOM     28  C18 <0> d  11     -19.831  13.802 -10.942  0.00  0.00     0.007 A 
ENDBRANCH  22  23
ENDBRANCH   2  22
TORSDOF 4
ENDMDL
