MODEL 1
REMARK VINA RESULT:    -6.657      0.000      0.000
REMARK INTER + INTRA:          -8.458
REMARK INTER:                  -7.898
REMARK INTRA:                  -0.560
REMARK UNBOUND:                -0.633
REMARK  3 active torsions:
REMARK  status: ('A' for Active; 'I' for Inactive)
REMARK    1  A    between atoms: C4_4  and  C7_7 
REMARK    2  A    between atoms: C14_14  and  C16_16 
REMARK    3  A    between atoms: C16_16  and  C17_17 
ROOT
ATOM      1  C7  <0> d  11     -20.190  13.497 -11.321  0.00  0.00     0.090 A 
ATOM      2  C8  <0> d  11     -18.877  13.847 -11.245  0.00  0.00     0.093 A 
ATOM      3  C9  <0> d  11     -18.513  15.210 -11.352  0.00  0.00     0.187 A 
ATOM      4  C10 <0> d  11     -19.601  16.191 -11.534  0.00  0.00     0.048 A 
ATOM      5  C11 <0> d  11     -19.336  17.555 -11.646  0.00  0.00     0.018 A 
ATOM      6  C12 <0> d  11     -20.380  18.438 -11.815  0.00  0.00     0.002 A 
ATOM      7  C13 <0> d  11     -21.686  17.975 -11.875  0.00  0.00     0.010 A 
ATOM      8  C14 <0> d  11     -21.960  16.629 -11.765  0.00  0.00    -0.013 A 
ATOM      9  C15 <0> d  11     -20.922  15.721 -11.594  0.00  0.00     0.097 A 
ATOM     10  O1  <0> d  11     -17.346  15.561 -11.294  0.00  0.00    -0.287 OA
ATOM     11  O2  <0> d  11     -21.169  14.399 -11.486  0.00  0.00    -0.308 OA
ENDROOT
BRANCH   1  12
ATOM     12  C4  <0> d  11     -20.551  12.070 -11.212  0.00  0.00    -0.002 A 
ATOM     13  C3  <0> d  11     -19.994  11.281 -10.202  0.00  0.00     0.014 A 
ATOM     14  C2  <0> d  11     -20.336   9.948 -10.106  0.00  0.00     0.001 A 
ATOM     15  C1  <0> d  11     -21.228   9.391 -11.007  0.00  0.00     0.000 A 
ATOM     16  C6  <0> d  11     -21.782  10.167 -12.009  0.00  0.00     0.001 A 
ATOM     17  C5  <0> d  11     -21.454  11.504 -12.114  0.00  0.00     0.014 A 
ENDBRANCH   1  12
BRANCH   8  18
ATOM     18  C16 <0> d  11     -23.385  16.141 -11.831  0.00  0.00     0.154 C 
BRANCH  18  19
ATOM     19  C17 <0> d  11     -23.783  15.945 -13.271  0.00  0.00     0.177 C 
ATOM     20  O3  <0> d  11     -23.836  14.831 -13.736  0.00  0.00    -0.648 OA
ATOM     21  O4  <0> d  11     -24.078  17.008 -14.036  0.00  0.00    -0.648 OA
ENDBRANCH  18  19
ENDBRANCH   8  18
TORSDOF 3
ENDMDL
MODEL 2
REMARK VINA RESULT:    -6.458      1.276      4.079
REMARK INTER + INTRA:          -8.224
REMARK INTER:                  -7.628
REMARK INTRA:                  -0.596
REMARK UNBOUND:                -0.633
REMARK  3 active torsions:
REMARK  status: ('A' for Active; 'I' for Inactive)
REMARK    1  A    between atoms: C4_4  and  C7_7 
REMARK    2  A    between atoms: C14_14  and  C16_16 
REMARK    3  A    between atoms: C16_16  and  C17_17 
ROOT
ATOM      1  C7  <0> d  11     -21.203  13.704 -11.415  0.00  0.00     0.090 A 
ATOM      2  C8  <0> d  11     -22.451  14.184 -11.668  0.00  0.00     0.093 A 
ATOM      3  C9  <0> d  11     -22.632  15.568 -11.896  0.00  0.00     0.187 A 
ATOM      4  C10 <0> d  11     -21.431  16.425 -11.856  0.00  0.00     0.048 A 
ATOM      5  C11 <0> d  11     -21.513  17.799 -12.073  0.00  0.00     0.018 A 
ATOM      6  C12 <0> d  11     -20.368  18.565 -12.027  0.00  0.00     0.002 A 
ATOM      7  C13 <0> d  11     -19.141  17.973 -11.765  0.00  0.00     0.010 A 
ATOM      8  C14 <0> d  11     -19.047  16.615 -11.550  0.00  0.00    -0.013 A 
ATOM      9  C15 <0> d  11     -20.190  15.825 -11.592  0.00  0.00     0.097 A 
ATOM     10  O1  <0> d  11     -23.737  16.035 -12.120  0.00  0.00    -0.287 OA
ATOM     11  O2  <0> d  11     -20.119  14.494 -11.382  0.00  0.00    -0.308 OA
ENDROOT
BRANCH   1  12
ATOM     12  C4  <0> d  11     -21.034  12.257 -11.175  0.00  0.00    -0.002 A 
ATOM     13  C3  <0> d  11     -21.790  11.333 -11.899  0.00  0.00     0.014 A 
ATOM     14  C2  <0> d  11     -21.627   9.983 -11.669  0.00  0.00     0.001 A 
ATOM     15  C1  <0> d  11     -20.718   9.543 -10.722  0.00  0.00     0.000 A 
ATOM     16  C6  <0> d  11     -19.966  10.453 -10.002  0.00  0.00     0.001 A 
ATOM     17  C5  <0> d  11     -20.114  11.807 -10.225  0.00  0.00     0.014 A 
ENDBRANCH   1  12
BRANCH   8  18
ATOM     18  C16 <0> d  11     -17.706  15.987 -11.268  0.00  0.00     0.154 C 
BRANCH  18  19
ATOM     19  C17 <0> d  11     -17.237  16.396  -9.896  0.00  0.00     0.177 C 
ATOM     20  O3  <0> d  11     -17.600  15.778  -8.923  0.00  0.00    -0.648 OA
ATOM     21  O4  <0> d  11     -16.416  17.449  -9.754  0.00  0.00    -0.648 OA
ENDBRANCH  18  19
ENDBRANCH   8  18
TORSDOF 3
ENDMDL
MODEL 3
REMARK VINA RESULT:    -6.452      1.942      6.436
REMARK INTER + INTRA:          -8.217
REMARK INTER:                  -7.981
REMARK INTRA:                  -0.236
REMARK UNBOUND:                -0.633
REMARK  3 active torsions:
REMARK  status: ('A' for Active; 'I' for Inactive)
REMARK    1  A    between atoms: C4_4  and  C7_7 
REMARK    2  A    between atoms: C14_14  and  C16_16 
REMARK    3  A    between atoms: C16_16  and  C17_17 
ROOT
ATOM      1  C7  <0> d  11     -20.977  14.204 -11.492  0.00  0.00     0.090 A 
ATOM      2  C8  <0> d  11     -22.236  14.509 -11.907  0.00  0.00     0.093 A 
ATOM      3  C9  <0> d  11     -23.233  13.505 -11.906  0.00  0.00     0.187 A 
ATOM      4  C10 <0> d  11     -22.841  12.161 -11.437  0.00  0.00     0.048 A 
ATOM      5  C11 <0> d  11     -23.756  11.111 -11.399  0.00  0.00     0.018 A 
ATOM      6  C12 <0> d  11     -23.351   9.871 -10.954  0.00  0.00     0.002 A 
ATOM      7  C13 <0> d  11     -22.040   9.668 -10.548  0.00  0.00     0.010 A 
ATOM      8  C14 <0> d  11     -21.126  10.699 -10.581  0.00  0.00    -0.013 A 
ATOM      9  C15 <0> d  11     -21.514  11.957 -11.026  0.00  0.00     0.097 A 
ATOM     10  O1  <0> d  11     -24.371  13.740 -12.276  0.00  0.00    -0.287 OA
ATOM     11  O2  <0> d  11     -20.634  12.979 -11.067  0.00  0.00    -0.308 OA
ENDROOT
BRANCH   1  12
ATOM     12  C4  <0> d  11     -19.950  15.264 -11.504  0.00  0.00    -0.002 A 
ATOM     13  C3  <0> d  11     -18.595  14.928 -11.474  0.00  0.00     0.014 A 
ATOM     14  C2  <0> d  11     -17.640  15.924 -11.486  0.00  0.00     0.001 A 
ATOM     15  C1  <0> d  11     -18.022  17.254 -11.527  0.00  0.00     0.000 A 
ATOM     16  C6  <0> d  11     -19.363  17.593 -11.558  0.00  0.00     0.001 A 
ATOM     17  C5  <0> d  11     -20.329  16.608 -11.552  0.00  0.00     0.014 A 
ENDBRANCH   1  12
BRANCH   8  18
ATOM     18  C16 <0> d  11     -19.705  10.462 -10.135  0.00  0.00     0.154 C 
BRANCH  18  19
ATOM     19  C17 <0> d  11     -19.376  11.388  -8.992  0.00  0.00     0.177 C 
ATOM     20  O3  <0> d  11     -20.130  11.480  -8.053  0.00  0.00    -0.648 OA
ATOM     21  O4  <0> d  11     -18.245  12.110  -9.019  0.00  0.00    -0.648 OA
ENDBRANCH  18  19
ENDBRANCH   8  18
TORSDOF 3
ENDMDL
MODEL 4
REMARK VINA RESULT:    -6.166      2.105      6.764
REMARK INTER + INTRA:          -7.881
REMARK INTER:                  -7.328
REMARK INTRA:                  -0.553
REMARK UNBOUND:                -0.633
REMARK  3 active torsions:
REMARK  status: ('A' for Active; 'I' for Inactive)
REMARK    1  A    between atoms: C4_4  and  C7_7 
REMARK    2  A    between atoms: C14_14  and  C16_16 
REMARK    3  A    between atoms: C16_16  and  C17_17 
ROOT
ATOM      1  C7  <0> d  11     -23.675  14.220 -12.480  0.00  0.00     0.090 A 
ATOM      2  C8  <0> d  11     -24.796  13.641 -11.973  0.00  0.00     0.093 A 
ATOM      3  C9  <0> d  11     -24.704  12.378 -11.342  0.00  0.00     0.187 A 
ATOM      4  C10 <0> d  11     -23.367  11.757 -11.261  0.00  0.00     0.048 A 
ATOM      5  C11 <0> d  11     -23.180  10.516 -10.654  0.00  0.00     0.018 A 
ATOM      6  C12 <0> d  11     -21.916   9.970 -10.598  0.00  0.00     0.002 A 
ATOM      7  C13 <0> d  11     -20.836  10.648 -11.144  0.00  0.00     0.010 A 
ATOM      8  C14 <0> d  11     -21.008  11.876 -11.746  0.00  0.00    -0.013 A 
ATOM      9  C15 <0> d  11     -22.275  12.445 -11.812  0.00  0.00     0.097 A 
ATOM     10  O1  <0> d  11     -25.689  11.826 -10.881  0.00  0.00    -0.287 OA
ATOM     11  O2  <0> d  11     -22.465  13.644 -12.399  0.00  0.00    -0.308 OA
ENDROOT
BRANCH   1  12
ATOM     12  C4  <0> d  11     -23.792  15.536 -13.139  0.00  0.00    -0.002 A 
ATOM     13  C3  <0> d  11     -24.523  15.665 -14.323  0.00  0.00     0.014 A 
ATOM     14  C2  <0> d  11     -24.628  16.897 -14.933  0.00  0.00     0.001 A 
ATOM     15  C1  <0> d  11     -24.011  18.005 -14.377  0.00  0.00     0.000 A 
ATOM     16  C6  <0> d  11     -23.286  17.884 -13.205  0.00  0.00     0.001 A 
ATOM     17  C5  <0> d  11     -23.177  16.658 -12.580  0.00  0.00     0.014 A 
ENDBRANCH   1  12
BRANCH   8  18
ATOM     18  C16 <0> d  11     -19.825  12.602 -12.333  0.00  0.00     0.154 C 
BRANCH  18  19
ATOM     19  C17 <0> d  11     -19.082  13.321 -11.236  0.00  0.00     0.177 C 
ATOM     20  O3  <0> d  11     -19.290  14.494 -11.034  0.00  0.00    -0.648 OA
ATOM     21  O4  <0> d  11     -18.188  12.658 -10.486  0.00  0.00    -0.648 OA
ENDBRANCH  18  19
ENDBRANCH   8  18
TORSDOF 3
ENDMDL
MODEL 5
REMARK VINA RESULT:    -6.054      3.254      5.321
REMARK INTER + INTRA:          -7.749
REMARK INTER:                  -7.116
REMARK INTRA:                  -0.633
REMARK UNBOUND:                -0.633
REMARK  3 active torsions:
REMARK  status: ('A' for Active; 'I' for Inactive)
REMARK    1  A    between atoms: C4_4  and  C7_7 
REMARK    2  A    between atoms: C14_14  and  C16_16 
REMARK    3  A    between atoms: C16_16  and  C17_17 
ROOT
ATOM      1  C7  <0> d  11     -19.499  13.218 -10.289  0.00  0.00     0.090 A 
ATOM      2  C8  <0> d  11     -19.276  14.149 -11.255  0.00  0.00     0.093 A 
ATOM      3  C9  <0> d  11     -18.636  15.365 -10.917  0.00  0.00     0.187 A 
ATOM      4  C10 <0> d  11     -18.231  15.550  -9.510  0.00  0.00     0.048 A 
ATOM      5  C11 <0> d  11     -17.592  16.713  -9.086  0.00  0.00     0.018 A 
ATOM      6  C12 <0> d  11     -17.230  16.848  -7.763  0.00  0.00     0.002 A 
ATOM      7  C13 <0> d  11     -17.501  15.833  -6.858  0.00  0.00     0.010 A 
ATOM      8  C14 <0> d  11     -18.132  14.677  -7.265  0.00  0.00    -0.013 A 
ATOM      9  C15 <0> d  11     -18.505  14.521  -8.595  0.00  0.00     0.097 A 
ATOM     10  O1  <0> d  11     -18.425  16.225 -11.756  0.00  0.00    -0.287 OA
ATOM     11  O2  <0> d  11     -19.125  13.399  -9.013  0.00  0.00    -0.308 OA
ENDROOT
BRANCH   1  12
ATOM     12  C4  <0> d  11     -20.172  11.958 -10.659  0.00  0.00    -0.002 A 
ATOM     13  C3  <0> d  11     -19.900  10.783  -9.954  0.00  0.00     0.014 A 
ATOM     14  C2  <0> d  11     -20.534   9.609 -10.305  0.00  0.00     0.001 A 
ATOM     15  C1  <0> d  11     -21.436   9.593 -11.355  0.00  0.00     0.000 A 
ATOM     16  C6  <0> d  11     -21.709  10.752 -12.058  0.00  0.00     0.001 A 
ATOM     17  C5  <0> d  11     -21.088  11.935 -11.714  0.00  0.00     0.014 A 
ENDBRANCH   1  12
BRANCH   8  18
ATOM     18  C16 <0> d  11     -18.417  13.582  -6.269  0.00  0.00     0.154 C 
BRANCH  18  19
ATOM     19  C17 <0> d  11     -17.172  12.761  -6.053  0.00  0.00     0.177 C 
ATOM     20  O3  <0> d  11     -16.608  12.788  -4.985  0.00  0.00    -0.648 OA
ATOM     21  O4  <0> d  11     -16.690  12.001  -7.049  0.00  0.00    -0.648 OA
ENDBRANCH  18  19
ENDBRANCH   8  18
TORSDOF 3
ENDMDL
