REMARK INTER + INTRA:          -9.694
REMARK INTER:                  -8.224
REMARK INTRA:                  -1.470
REMARK UNBOUND:                -1.580
REMARK  4 active torsions:
REMARK  status: ('A' for Active; 'I' for Inactive)
REMARK    1  A    between atoms: C4_4  and  N1_25 
REMARK    2  A    between atoms: C8_8  and  C16_16 
REMARK    3  A    between atoms: C9_9  and  C10_10 
REMARK    4  A    between atoms: C16_16  and  C17_17 
ROOT
ATOM      1  C7  <0> d  11     -23.572  15.490 -11.796  0.00  0.00     0.271 A 
ATOM      2  C8  <0> d  11     -22.930  14.432 -11.120  0.00  0.00     0.044 A 
ATOM      3  C9  <0> d  11     -23.360  13.260 -11.668  0.00  0.00     0.070 A 
ATOM      4  H1  <0> d  11     -24.729  12.921 -13.221  0.00  0.00     0.187 HD
ATOM      5  N1  <0> d  11     -24.379  14.955 -12.733  0.00  0.00    -0.252 N 
ATOM      6  N2  <0> d  11     -24.261  13.561 -12.663  0.00  0.00    -0.294 N 
ATOM      7  O1  <0> d  11     -23.421  16.678 -11.572  0.00  0.00    -0.266 OA
ENDROOT
BRANCH   5   8
ATOM      8  C4  <0> d  11     -25.233  15.702 -13.660  0.00  0.00     0.115 C 
ATOM      9  C3  <0> d  11     -24.552  15.785 -15.029  0.00  0.00     0.055 C 
ATOM     10  C2  <0> d  11     -25.475  16.512 -16.010  0.00  0.00     0.236 C 
ATOM     11  N3  <0> d  11     -26.740  15.759 -16.128  0.00  0.00    -0.075 N 
ATOM     12  C1  <0> d  11     -27.604  16.378 -17.154  0.00  0.00     0.269 C 
ATOM     13  C6  <0> d  11     -27.441  15.736 -14.825  0.00  0.00     0.236 C 
ATOM     14  H26 <0> d  11     -26.529  14.794 -16.409  0.00  0.00     0.279 HD
ATOM     15  C5  <0> d  11     -26.577  14.984 -13.810  0.00  0.00     0.055 C 
ENDBRANCH   5   8
BRANCH   3  16
ATOM     16  C10 <0> d  11     -22.935  11.904 -11.262  0.00  0.00    -0.007 A 
ATOM     17  C15 <0> d  11     -21.875  11.276 -11.919  0.00  0.00     0.014 A 
ATOM     18  C14 <0> d  11     -21.483  10.010 -11.535  0.00  0.00     0.001 A 
ATOM     19  C13 <0> d  11     -22.139   9.364 -10.502  0.00  0.00     0.000 A 
ATOM     20  C12 <0> d  11     -23.189   9.981  -9.846  0.00  0.00     0.001 A 
ATOM     21  C11 <0> d  11     -23.587  11.249 -10.216  0.00  0.00     0.014 A 
ENDBRANCH   3  16
BRANCH   2  22
ATOM     22  C16 <0> d  11     -21.939  14.572  -9.993  0.00  0.00     0.085 C 
BRANCH  22  23
ATOM     23  C17 <0> d  11     -20.576  14.880 -10.559  0.00  0.00    -0.054 A 
ATOM     24  C22 <0> d  11     -19.801  13.866 -11.088  0.00  0.00     0.007 A 
ATOM     25  C21 <0> d  11     -18.551  14.150 -11.608  0.00  0.00     0.001 A 
ATOM     26  C20 <0> d  11     -18.079  15.449 -11.599  0.00  0.00     0.000 A 
ATOM     27  C19 <0> d  11     -18.856  16.464 -11.074  0.00  0.00     0.001 A 
ATOM     28  C18 <0> d  11     -20.103  16.179 -10.550  0.00  0.00     0.007 A 
ENDBRANCH  22  23
ENDBRANCH   2  22
TORSDOF 4
ENDMDL
