REMARK INTER + INTRA:          -8.217
REMARK INTER:                  -7.981
REMARK INTRA:                  -0.236
REMARK UNBOUND:                -0.633
REMARK  3 active torsions:
REMARK  status: ('A' for Active; 'I' for Inactive)
REMARK    1  A    between atoms: C4_4  and  C7_7 
REMARK    2  A    between atoms: C14_14  and  C16_16 
REMARK    3  A    between atoms: C16_16  and  C17_17 
ROOT
ATOM      1  C7  <0> d  11     -20.977  14.204 -11.492  0.00  0.00     0.090 A 
ATOM      2  C8  <0> d  11     -22.236  14.509 -11.907  0.00  0.00     0.093 A 
ATOM      3  C9  <0> d  11     -23.233  13.505 -11.906  0.00  0.00     0.187 A 
ATOM      4  C10 <0> d  11     -22.841  12.161 -11.437  0.00  0.00     0.048 A 
ATOM      5  C11 <0> d  11     -23.756  11.111 -11.399  0.00  0.00     0.018 A 
ATOM      6  C12 <0> d  11     -23.351   9.871 -10.954  0.00  0.00     0.002 A 
ATOM      7  C13 <0> d  11     -22.040   9.668 -10.548  0.00  0.00     0.010 A 
ATOM      8  C14 <0> d  11     -21.126  10.699 -10.581  0.00  0.00    -0.013 A 
ATOM      9  C15 <0> d  11     -21.514  11.957 -11.026  0.00  0.00     0.097 A 
ATOM     10  O1  <0> d  11     -24.371  13.740 -12.276  0.00  0.00    -0.287 OA
ATOM     11  O2  <0> d  11     -20.634  12.979 -11.067  0.00  0.00    -0.308 OA
ENDROOT
BRANCH   1  12
ATOM     12  C4  <0> d  11     -19.950  15.264 -11.504  0.00  0.00    -0.002 A 
ATOM     13  C3  <0> d  11     -18.595  14.928 -11.474  0.00  0.00     0.014 A 
ATOM     14  C2  <0> d  11     -17.640  15.924 -11.486  0.00  0.00     0.001 A 
ATOM     15  C1  <0> d  11     -18.022  17.254 -11.527  0.00  0.00     0.000 A 
ATOM     16  C6  <0> d  11     -19.363  17.593 -11.558  0.00  0.00     0.001 A 
ATOM     17  C5  <0> d  11     -20.329  16.608 -11.552  0.00  0.00     0.014 A 
ENDBRANCH   1  12
BRANCH   8  18
ATOM     18  C16 <0> d  11     -19.705  10.462 -10.135  0.00  0.00     0.154 C 
BRANCH  18  19
ATOM     19  C17 <0> d  11     -19.376  11.388  -8.992  0.00  0.00     0.177 C 
ATOM     20  O3  <0> d  11     -20.130  11.480  -8.053  0.00  0.00    -0.648 OA
ATOM     21  O4  <0> d  11     -18.245  12.110  -9.019  0.00  0.00    -0.648 OA
ENDBRANCH  18  19
ENDBRANCH   8  18
TORSDOF 3
ENDMDL
