MODEL 1
REMARK VINA RESULT:    -6.667      0.000      0.000
REMARK INTER + INTRA:          -8.473
REMARK INTER:                  -7.896
REMARK INTRA:                  -0.577
REMARK UNBOUND:                -0.638
REMARK  3 active torsions:
REMARK  status: ('A' for Active; 'I' for Inactive)
REMARK    1  A    between atoms: C4_4  and  C7_7 
REMARK    2  A    between atoms: C14_14  and  C16_16 
REMARK    3  A    between atoms: C16_16  and  C17_17 
ROOT
ATOM      1  C7  <0> d  11     -20.173  13.501 -11.313  0.00  0.00     0.090 A 
ATOM      2  C8  <0> d  11     -18.859  13.845 -11.234  0.00  0.00     0.093 A 
ATOM      3  C9  <0> d  11     -18.489  15.207 -11.331  0.00  0.00     0.187 A 
ATOM      4  C10 <0> d  11     -19.572  16.194 -11.506  0.00  0.00     0.048 A 
ATOM      5  C11 <0> d  11     -19.302  17.557 -11.607  0.00  0.00     0.018 A 
ATOM      6  C12 <0> d  11     -20.342  18.447 -11.770  0.00  0.00     0.002 A 
ATOM      7  C13 <0> d  11     -21.650  17.990 -11.835  0.00  0.00     0.010 A 
ATOM      8  C14 <0> d  11     -21.930  16.644 -11.735  0.00  0.00    -0.013 A 
ATOM      9  C15 <0> d  11     -20.896  15.730 -11.570  0.00  0.00     0.097 A 
ATOM     10  O1  <0> d  11     -17.320  15.552 -11.269  0.00  0.00    -0.287 OA
ATOM     11  O2  <0> d  11     -21.148  14.409 -11.473  0.00  0.00    -0.308 OA
ENDROOT
BRANCH   1  12
ATOM     12  C4  <0> d  11     -20.540  12.075 -11.215  0.00  0.00    -0.002 A 
ATOM     13  C3  <0> d  11     -21.467  11.525 -12.105  0.00  0.00     0.014 A 
ATOM     14  C2  <0> d  11     -21.804  10.192 -12.007  0.00  0.00     0.001 A 
ATOM     15  C1  <0> d  11     -21.228   9.397 -11.032  0.00  0.00     0.000 A 
ATOM     16  C6  <0> d  11     -20.310   9.935 -10.147  0.00  0.00     0.001 A 
ATOM     17  C5  <0> d  11     -19.958  11.266 -10.237  0.00  0.00     0.014 A 
ENDBRANCH   1  12
BRANCH   8  18
ATOM     18  C16 <0> d  11     -23.357  16.163 -11.806  0.00  0.00     0.154 C 
BRANCH  18  19
ATOM     19  C17 <0> d  11     -23.753  15.977 -13.247  0.00  0.00     0.177 C 
ATOM     20  O3  <0> d  11     -23.766  14.870 -13.732  0.00  0.00    -0.648 OA
ATOM     21  O4  <0> d  11     -24.094  17.040 -13.992  0.00  0.00    -0.648 OA
ENDBRANCH  18  19
ENDBRANCH   8  18
TORSDOF 3
ENDMDL
MODEL 2
REMARK VINA RESULT:    -6.427      1.288      3.960
REMARK INTER + INTRA:          -8.192
REMARK INTER:                  -7.621
REMARK INTRA:                  -0.572
REMARK UNBOUND:                -0.638
REMARK  3 active torsions:
REMARK  status: ('A' for Active; 'I' for Inactive)
REMARK    1  A    between atoms: C4_4  and  C7_7 
REMARK    2  A    between atoms: C14_14  and  C16_16 
REMARK    3  A    between atoms: C16_16  and  C17_17 
ROOT
ATOM      1  C7  <0> d  11     -21.171  13.772 -11.452  0.00  0.00     0.090 A 
ATOM      2  C8  <0> d  11     -22.404  14.274 -11.732  0.00  0.00     0.093 A 
ATOM      3  C9  <0> d  11     -22.555  15.662 -11.961  0.00  0.00     0.187 A 
ATOM      4  C10 <0> d  11     -21.340  16.498 -11.890  0.00  0.00     0.048 A 
ATOM      5  C11 <0> d  11     -21.393  17.873 -12.104  0.00  0.00     0.018 A 
ATOM      6  C12 <0> d  11     -20.236  18.618 -12.029  0.00  0.00     0.002 A 
ATOM      7  C13 <0> d  11     -19.026  18.005 -11.739  0.00  0.00     0.010 A 
ATOM      8  C14 <0> d  11     -18.961  16.645 -11.526  0.00  0.00    -0.013 A 
ATOM      9  C15 <0> d  11     -20.116  15.875 -11.598  0.00  0.00     0.097 A 
ATOM     10  O1  <0> d  11     -23.645  16.148 -12.210  0.00  0.00    -0.287 OA
ATOM     11  O2  <0> d  11     -20.074  14.543 -11.390  0.00  0.00    -0.308 OA
ENDROOT
BRANCH   1  12
ATOM     12  C4  <0> d  11     -21.033  12.322 -11.212  0.00  0.00    -0.002 A 
ATOM     13  C3  <0> d  11     -21.812  11.414 -11.932  0.00  0.00     0.014 A 
ATOM     14  C2  <0> d  11     -21.678  10.060 -11.702  0.00  0.00     0.001 A 
ATOM     15  C1  <0> d  11     -20.774   9.601 -10.761  0.00  0.00     0.000 A 
ATOM     16  C6  <0> d  11     -19.999  10.495 -10.043  0.00  0.00     0.001 A 
ATOM     17  C5  <0> d  11     -20.119  11.850 -10.267  0.00  0.00     0.014 A 
ENDBRANCH   1  12
BRANCH   8  18
ATOM     18  C16 <0> d  11     -17.638  15.992 -11.215  0.00  0.00     0.154 C 
BRANCH  18  19
ATOM     19  C17 <0> d  11     -17.182  16.412  -9.842  0.00  0.00     0.177 C 
ATOM     20  O3  <0> d  11     -17.535  15.787  -8.870  0.00  0.00    -0.648 OA
ATOM     21  O4  <0> d  11     -16.383  17.481  -9.698  0.00  0.00    -0.648 OA
ENDBRANCH  18  19
ENDBRANCH   8  18
TORSDOF 3
ENDMDL
MODEL 3
REMARK VINA RESULT:    -6.400      1.939      6.441
REMARK INTER + INTRA:          -8.160
REMARK INTER:                  -7.888
REMARK INTRA:                  -0.272
REMARK UNBOUND:                -0.638
REMARK  3 active torsions:
REMARK  status: ('A' for Active; 'I' for Inactive)
REMARK    1  A    between atoms: C4_4  and  C7_7 
REMARK    2  A    between atoms: C14_14  and  C16_16 
REMARK    3  A    between atoms: C16_16  and  C17_17 
ROOT
ATOM      1  C7  <0> d  11     -20.924  14.261 -11.469  0.00  0.00     0.090 A 
ATOM      2  C8  <0> d  11     -22.178  14.558 -11.905  0.00  0.00     0.093 A 
ATOM      3  C9  <0> d  11     -23.168  13.547 -11.921  0.00  0.00     0.187 A 
ATOM      4  C10 <0> d  11     -22.776  12.206 -11.445  0.00  0.00     0.048 A 
ATOM      5  C11 <0> d  11     -23.686  11.151 -11.422  0.00  0.00     0.018 A 
ATOM      6  C12 <0> d  11     -23.280   9.914 -10.970  0.00  0.00     0.002 A 
ATOM      7  C13 <0> d  11     -21.976   9.718 -10.542  0.00  0.00     0.010 A 
ATOM      8  C14 <0> d  11     -21.067  10.755 -10.559  0.00  0.00    -0.013 A 
ATOM      9  C15 <0> d  11     -21.456  12.010 -11.011  0.00  0.00     0.097 A 
ATOM     10  O1  <0> d  11     -24.301  13.776 -12.311  0.00  0.00    -0.287 OA
ATOM     11  O2  <0> d  11     -20.581  13.037 -11.038  0.00  0.00    -0.308 OA
ENDROOT
BRANCH   1  12
ATOM     12  C4  <0> d  11     -19.904  15.327 -11.464  0.00  0.00    -0.002 A 
ATOM     13  C3  <0> d  11     -20.283  16.663 -11.612  0.00  0.00     0.014 A 
ATOM     14  C2  <0> d  11     -19.324  17.654 -11.605  0.00  0.00     0.001 A 
ATOM     15  C1  <0> d  11     -17.988  17.328 -11.453  0.00  0.00     0.000 A 
ATOM     16  C6  <0> d  11     -17.604  16.007 -11.306  0.00  0.00     0.001 A 
ATOM     17  C5  <0> d  11     -18.553  15.006 -11.305  0.00  0.00     0.014 A 
ENDBRANCH   1  12
BRANCH   8  18
ATOM     18  C16 <0> d  11     -19.653  10.527 -10.089  0.00  0.00     0.154 C 
BRANCH  18  19
ATOM     19  C17 <0> d  11     -19.374  11.404  -8.896  0.00  0.00     0.177 C 
ATOM     20  O3  <0> d  11     -20.198  11.513  -8.020  0.00  0.00    -0.648 OA
ATOM     21  O4  <0> d  11     -18.208  12.063  -8.806  0.00  0.00    -0.648 OA
ENDBRANCH  18  19
ENDBRANCH   8  18
TORSDOF 3
ENDMDL
MODEL 4
REMARK VINA RESULT:    -6.193      2.119      6.729
REMARK INTER + INTRA:          -7.917
REMARK INTER:                  -7.325
REMARK INTRA:                  -0.592
REMARK UNBOUND:                -0.638
REMARK  3 active torsions:
REMARK  status: ('A' for Active; 'I' for Inactive)
REMARK    1  A    between atoms: C4_4  and  C7_7 
REMARK    2  A    between atoms: C14_14  and  C16_16 
REMARK    3  A    between atoms: C16_16  and  C17_17 
ROOT
ATOM      1  C7  <0> d  11     -23.698  14.243 -12.488  0.00  0.00     0.090 A 
ATOM      2  C8  <0> d  11     -24.825  13.654 -12.005  0.00  0.00     0.093 A 
ATOM      3  C9  <0> d  11     -24.738  12.384 -11.388  0.00  0.00     0.187 A 
ATOM      4  C10 <0> d  11     -23.401  11.764 -11.296  0.00  0.00     0.048 A 
ATOM      5  C11 <0> d  11     -23.220  10.517 -10.702  0.00  0.00     0.018 A 
ATOM      6  C12 <0> d  11     -21.955   9.973 -10.637  0.00  0.00     0.002 A 
ATOM      7  C13 <0> d  11     -20.870  10.660 -11.158  0.00  0.00     0.010 A 
ATOM      8  C14 <0> d  11     -21.036  11.895 -11.747  0.00  0.00    -0.013 A 
ATOM      9  C15 <0> d  11     -22.303  12.462 -11.824  0.00  0.00     0.097 A 
ATOM     10  O1  <0> d  11     -25.728  11.824 -10.947  0.00  0.00    -0.287 OA
ATOM     11  O2  <0> d  11     -22.488  13.669 -12.398  0.00  0.00    -0.308 OA
ENDROOT
BRANCH   1  12
ATOM     12  C4  <0> d  11     -23.809  15.566 -13.133  0.00  0.00    -0.002 A 
ATOM     13  C3  <0> d  11     -23.190  16.680 -12.560  0.00  0.00     0.014 A 
ATOM     14  C2  <0> d  11     -23.298  17.913 -13.168  0.00  0.00     0.001 A 
ATOM     15  C1  <0> d  11     -24.016  18.050 -14.343  0.00  0.00     0.000 A 
ATOM     16  C6  <0> d  11     -24.632  16.951 -14.915  0.00  0.00     0.001 A 
ATOM     17  C5  <0> d  11     -24.528  15.710 -14.322  0.00  0.00     0.014 A 
ENDBRANCH   1  12
BRANCH   8  18
ATOM     18  C16 <0> d  11     -19.846  12.631 -12.308  0.00  0.00     0.154 C 
BRANCH  18  19
ATOM     19  C17 <0> d  11     -19.152  13.381 -11.201  0.00  0.00     0.177 C 
ATOM     20  O3  <0> d  11     -18.208  12.884 -10.635  0.00  0.00    -0.648 OA
ATOM     21  O4  <0> d  11     -19.582  14.601 -10.845  0.00  0.00    -0.648 OA
ENDBRANCH  18  19
ENDBRANCH   8  18
TORSDOF 3
ENDMDL
MODEL 5
REMARK VINA RESULT:    -5.877      3.225      5.409
REMARK INTER + INTRA:          -7.545
REMARK INTER:                  -6.908
REMARK INTRA:                  -0.638
REMARK UNBOUND:                -0.638
REMARK  3 active torsions:
REMARK  status: ('A' for Active; 'I' for Inactive)
REMARK    1  A    between atoms: C4_4  and  C7_7 
REMARK    2  A    between atoms: C14_14  and  C16_16 
REMARK    3  A    between atoms: C16_16  and  C17_17 
ROOT
ATOM      1  C7  <0> d  11     -19.111  13.846 -10.422  0.00  0.00     0.090 A 
ATOM      2  C8  <0> d  11     -18.808  14.747 -11.396  0.00  0.00     0.093 A 
ATOM      3  C9  <0> d  11     -18.084  15.916 -11.064  0.00  0.00     0.187 A 
ATOM      4  C10 <0> d  11     -17.684  16.088  -9.653  0.00  0.00     0.048 A 
ATOM      5  C11 <0> d  11     -16.966  17.206  -9.234  0.00  0.00     0.018 A 
ATOM      6  C12 <0> d  11     -16.611  17.329  -7.908  0.00  0.00     0.002 A 
ATOM      7  C13 <0> d  11     -16.968  16.348  -6.995  0.00  0.00     0.010 A 
ATOM      8  C14 <0> d  11     -17.677  15.237  -7.397  0.00  0.00    -0.013 A 
ATOM      9  C15 <0> d  11     -18.045  15.093  -8.730  0.00  0.00     0.097 A 
ATOM     10  O1  <0> d  11     -17.799  16.748 -11.909  0.00  0.00    -0.287 OA
ATOM     11  O2  <0> d  11     -18.741  14.015  -9.144  0.00  0.00    -0.308 OA
ENDROOT
BRANCH   1  12
ATOM     12  C4  <0> d  11     -19.871  12.635 -10.788  0.00  0.00    -0.002 A 
ATOM     13  C3  <0> d  11     -19.805  11.495  -9.983  0.00  0.00     0.014 A 
ATOM     14  C2  <0> d  11     -20.518  10.367 -10.331  0.00  0.00     0.001 A 
ATOM     15  C1  <0> d  11     -21.299  10.362 -11.473  0.00  0.00     0.000 A 
ATOM     16  C6  <0> d  11     -21.369  11.488 -12.275  0.00  0.00     0.001 A 
ATOM     17  C5  <0> d  11     -20.665  12.625 -11.937  0.00  0.00     0.014 A 
ENDBRANCH   1  12
BRANCH   8  18
ATOM     18  C16 <0> d  11     -18.056  14.179  -6.393  0.00  0.00     0.154 C 
BRANCH  18  19
ATOM     19  C17 <0> d  11     -16.934  13.180  -6.269  0.00  0.00     0.177 C 
ATOM     20  O3  <0> d  11     -16.086  13.326  -5.422  0.00  0.00    -0.648 OA
ATOM     21  O4  <0> d  11     -16.879  12.127  -7.100  0.00  0.00    -0.648 OA
ENDBRANCH  18  19
ENDBRANCH   8  18
TORSDOF 3
ENDMDL
