REMARK INTER + INTRA:          -8.192
REMARK INTER:                  -7.621
REMARK INTRA:                  -0.572
REMARK UNBOUND:                -0.638
REMARK  3 active torsions:
REMARK  status: ('A' for Active; 'I' for Inactive)
REMARK    1  A    between atoms: C4_4  and  C7_7 
REMARK    2  A    between atoms: C14_14  and  C16_16 
REMARK    3  A    between atoms: C16_16  and  C17_17 
ROOT
ATOM      1  C7  <0> d  11     -21.171  13.772 -11.452  0.00  0.00     0.090 A 
ATOM      2  C8  <0> d  11     -22.404  14.274 -11.732  0.00  0.00     0.093 A 
ATOM      3  C9  <0> d  11     -22.555  15.662 -11.961  0.00  0.00     0.187 A 
ATOM      4  C10 <0> d  11     -21.340  16.498 -11.890  0.00  0.00     0.048 A 
ATOM      5  C11 <0> d  11     -21.393  17.873 -12.104  0.00  0.00     0.018 A 
ATOM      6  C12 <0> d  11     -20.236  18.618 -12.029  0.00  0.00     0.002 A 
ATOM      7  C13 <0> d  11     -19.026  18.005 -11.739  0.00  0.00     0.010 A 
ATOM      8  C14 <0> d  11     -18.961  16.645 -11.526  0.00  0.00    -0.013 A 
ATOM      9  C15 <0> d  11     -20.116  15.875 -11.598  0.00  0.00     0.097 A 
ATOM     10  O1  <0> d  11     -23.645  16.148 -12.210  0.00  0.00    -0.287 OA
ATOM     11  O2  <0> d  11     -20.074  14.543 -11.390  0.00  0.00    -0.308 OA
ENDROOT
BRANCH   1  12
ATOM     12  C4  <0> d  11     -21.033  12.322 -11.212  0.00  0.00    -0.002 A 
ATOM     13  C3  <0> d  11     -21.812  11.414 -11.932  0.00  0.00     0.014 A 
ATOM     14  C2  <0> d  11     -21.678  10.060 -11.702  0.00  0.00     0.001 A 
ATOM     15  C1  <0> d  11     -20.774   9.601 -10.761  0.00  0.00     0.000 A 
ATOM     16  C6  <0> d  11     -19.999  10.495 -10.043  0.00  0.00     0.001 A 
ATOM     17  C5  <0> d  11     -20.119  11.850 -10.267  0.00  0.00     0.014 A 
ENDBRANCH   1  12
BRANCH   8  18
ATOM     18  C16 <0> d  11     -17.638  15.992 -11.215  0.00  0.00     0.154 C 
BRANCH  18  19
ATOM     19  C17 <0> d  11     -17.182  16.412  -9.842  0.00  0.00     0.177 C 
ATOM     20  O3  <0> d  11     -17.535  15.787  -8.870  0.00  0.00    -0.648 OA
ATOM     21  O4  <0> d  11     -16.383  17.481  -9.698  0.00  0.00    -0.648 OA
ENDBRANCH  18  19
ENDBRANCH   8  18
TORSDOF 3
ENDMDL
