REMARK INTER + INTRA:          -9.399
REMARK INTER:                  -7.844
REMARK INTRA:                  -1.555
REMARK UNBOUND:                -1.555
REMARK  4 active torsions:
REMARK  status: ('A' for Active; 'I' for Inactive)
REMARK    1  A    between atoms: C4_4  and  N1_25 
REMARK    2  A    between atoms: C8_8  and  C16_16 
REMARK    3  A    between atoms: C9_9  and  C10_10 
REMARK    4  A    between atoms: C16_16  and  C17_17 
ROOT
ATOM      1  C7  <0> d  11     -18.820  13.702  -9.283  0.00  0.00     0.271 A 
ATOM      2  C8  <0> d  11     -19.658  13.043 -10.206  0.00  0.00     0.044 A 
ATOM      3  C9  <0> d  11     -20.343  12.074  -9.536  0.00  0.00     0.070 A 
ATOM      4  H1  <0> d  11     -20.268  11.526  -7.512  0.00  0.00     0.187 HD
ATOM      5  N1  <0> d  11     -18.999  13.129  -8.077  0.00  0.00    -0.252 N 
ATOM      6  N2  <0> d  11     -19.946  12.106  -8.219  0.00  0.00    -0.294 N 
ATOM      7  O1  <0> d  11     -18.068  14.627  -9.534  0.00  0.00    -0.266 OA
ENDROOT
BRANCH   5   8
ATOM      8  C4  <0> d  11     -18.321  13.509  -6.835  0.00  0.00     0.115 C 
ATOM      9  C3  <0> d  11     -19.344  13.587  -5.698  0.00  0.00     0.055 C 
ATOM     10  C2  <0> d  11     -18.621  13.923  -4.391  0.00  0.00     0.236 C 
ATOM     11  N3  <0> d  11     -17.633  12.862  -4.102  0.00  0.00    -0.075 N 
ATOM     12  C1  <0> d  11     -17.002  13.105  -2.788  0.00  0.00     0.269 C 
ATOM     13  C6  <0> d  11     -16.600  12.827  -5.159  0.00  0.00     0.236 C 
ATOM     14  H26 <0> d  11     -18.115  11.955  -4.078  0.00  0.00     0.279 HD
ATOM     15  C5  <0> d  11     -17.263  12.458  -6.488  0.00  0.00     0.055 C 
ENDBRANCH   5   8
BRANCH   3  16
ATOM     16  C10 <0> d  11     -21.335  11.148 -10.121  0.00  0.00    -0.007 A 
ATOM     17  C15 <0> d  11     -22.679  11.239  -9.755  0.00  0.00     0.014 A 
ATOM     18  C14 <0> d  11     -23.600  10.372 -10.306  0.00  0.00     0.001 A 
ATOM     19  C13 <0> d  11     -23.194   9.414 -11.218  0.00  0.00     0.000 A 
ATOM     20  C12 <0> d  11     -21.864   9.319 -11.586  0.00  0.00     0.001 A 
ATOM     21  C11 <0> d  11     -20.933  10.184 -11.047  0.00  0.00     0.014 A 
ENDBRANCH   3  16
BRANCH   2  22
ATOM     22  C16 <0> d  11     -19.779  13.358 -11.675  0.00  0.00     0.085 C 
BRANCH  22  23
ATOM     23  C17 <0> d  11     -20.983  14.236 -11.902  0.00  0.00    -0.054 A 
ATOM     24  C22 <0> d  11     -22.152  13.692 -12.401  0.00  0.00     0.007 A 
ATOM     25  C21 <0> d  11     -23.256  14.498 -12.608  0.00  0.00     0.001 A 
ATOM     26  C20 <0> d  11     -23.191  15.847 -12.317  0.00  0.00     0.000 A 
ATOM     27  C19 <0> d  11     -22.023  16.390 -11.814  0.00  0.00     0.001 A 
ATOM     28  C18 <0> d  11     -20.918  15.586 -11.611  0.00  0.00     0.007 A 
ENDBRANCH  22  23
ENDBRANCH   2  22
TORSDOF 4
ENDMDL
