REMARK INTER + INTRA:          -8.458
REMARK INTER:                  -7.898
REMARK INTRA:                  -0.560
REMARK UNBOUND:                -0.633
REMARK  3 active torsions:
REMARK  status: ('A' for Active; 'I' for Inactive)
REMARK    1  A    between atoms: C4_4  and  C7_7 
REMARK    2  A    between atoms: C14_14  and  C16_16 
REMARK    3  A    between atoms: C16_16  and  C17_17 
ROOT
ATOM      1  C7  <0> d  11     -20.190  13.497 -11.321  0.00  0.00     0.090 A 
ATOM      2  C8  <0> d  11     -18.877  13.847 -11.245  0.00  0.00     0.093 A 
ATOM      3  C9  <0> d  11     -18.513  15.210 -11.352  0.00  0.00     0.187 A 
ATOM      4  C10 <0> d  11     -19.601  16.191 -11.534  0.00  0.00     0.048 A 
ATOM      5  C11 <0> d  11     -19.336  17.555 -11.646  0.00  0.00     0.018 A 
ATOM      6  C12 <0> d  11     -20.380  18.438 -11.815  0.00  0.00     0.002 A 
ATOM      7  C13 <0> d  11     -21.686  17.975 -11.875  0.00  0.00     0.010 A 
ATOM      8  C14 <0> d  11     -21.960  16.629 -11.765  0.00  0.00    -0.013 A 
ATOM      9  C15 <0> d  11     -20.922  15.721 -11.594  0.00  0.00     0.097 A 
ATOM     10  O1  <0> d  11     -17.346  15.561 -11.294  0.00  0.00    -0.287 OA
ATOM     11  O2  <0> d  11     -21.169  14.399 -11.486  0.00  0.00    -0.308 OA
ENDROOT
BRANCH   1  12
ATOM     12  C4  <0> d  11     -20.551  12.070 -11.212  0.00  0.00    -0.002 A 
ATOM     13  C3  <0> d  11     -19.994  11.281 -10.202  0.00  0.00     0.014 A 
ATOM     14  C2  <0> d  11     -20.336   9.948 -10.106  0.00  0.00     0.001 A 
ATOM     15  C1  <0> d  11     -21.228   9.391 -11.007  0.00  0.00     0.000 A 
ATOM     16  C6  <0> d  11     -21.782  10.167 -12.009  0.00  0.00     0.001 A 
ATOM     17  C5  <0> d  11     -21.454  11.504 -12.114  0.00  0.00     0.014 A 
ENDBRANCH   1  12
BRANCH   8  18
ATOM     18  C16 <0> d  11     -23.385  16.141 -11.831  0.00  0.00     0.154 C 
BRANCH  18  19
ATOM     19  C17 <0> d  11     -23.783  15.945 -13.271  0.00  0.00     0.177 C 
ATOM     20  O3  <0> d  11     -23.836  14.831 -13.736  0.00  0.00    -0.648 OA
ATOM     21  O4  <0> d  11     -24.078  17.008 -14.036  0.00  0.00    -0.648 OA
ENDBRANCH  18  19
ENDBRANCH   8  18
TORSDOF 3
ENDMDL
