REMARK INTER + INTRA:          -6.829
REMARK INTER:                  -6.198
REMARK INTRA:                  -0.631
REMARK UNBOUND:                -0.631
REMARK  2 active torsions:
REMARK  status: ('A' for Active; 'I' for Inactive)
REMARK    1  A    between atoms: C4_4  and  C6_6 
REMARK    2  A    between atoms: C6_6  and  N1_20 
ROOT
ATOM      1  C7  <0> d  11     -21.924  11.932 -10.998  0.00  0.00     0.052 A 
ATOM      2  C8  <0> d  11     -21.255  10.849 -11.545  0.00  0.00     0.031 A 
ATOM      3  C9  <0> d  11     -21.888   9.624 -11.649  0.00  0.00     0.002 A 
ATOM      4  C10 <0> d  11     -23.189   9.469 -11.210  0.00  0.00     0.002 A 
ATOM      5  C11 <0> d  11     -23.868  10.545 -10.660  0.00  0.00     0.021 A 
ATOM      6  C12 <0> d  11     -23.239  11.769 -10.553  0.00  0.00     0.032 A 
ATOM      7  C13 <0> d  11     -23.297  14.518 -10.670  0.00  0.00     0.032 A 
ATOM      8  C14 <0> d  11     -21.976  14.375 -11.102  0.00  0.00     0.052 A 
ATOM      9  C15 <0> d  11     -21.353  15.435 -11.741  0.00  0.00     0.031 A 
ATOM     10  C16 <0> d  11     -22.039  16.618 -11.947  0.00  0.00     0.002 A 
ATOM     11  C17 <0> d  11     -23.346  16.755 -11.517  0.00  0.00     0.002 A 
ATOM     12  C18 <0> d  11     -23.978  15.702 -10.877  0.00  0.00     0.021 A 
ATOM     13  N1  <0> d  11     -21.289  13.174 -10.892  0.00  0.00    -0.344 N 
ATOM     14  S1  <0> d  11     -24.078  13.158  -9.856  0.00  0.00    -0.086 SA
ENDROOT
BRANCH  13  15
ATOM     15  C6  <0> d  11     -19.865  13.220 -10.553  0.00  0.00     0.136 C 
BRANCH  15  16
ATOM     16  C4  <0> d  11     -19.690  12.981  -9.052  0.00  0.00     0.031 C 
ATOM     17  C3  <0> d  11     -18.806  11.733  -8.793  0.00  0.00     0.035 C 
ATOM     18  C2  <0> d  11     -18.213  12.053  -7.398  0.00  0.00     0.234 C 
ATOM     19  N2  <0> d  11     -17.965  13.508  -7.431  0.00  0.00    -0.074 N 
ATOM     20  C1  <0> d  11     -18.187  14.095  -6.083  0.00  0.00     0.269 C 
ATOM     21  C5  <0> d  11     -18.877  14.124  -8.409  0.00  0.00     0.240 C 
ATOM     22  H21 <0> d  11     -16.994  13.681  -7.715  0.00  0.00     0.279 HD
ENDBRANCH  15  16
ENDBRANCH  13  15
TORSDOF 2
ENDMDL
