REMARK INTER + INTRA:          -7.024
REMARK INTER:                  -6.531
REMARK INTRA:                  -0.494
REMARK UNBOUND:                -0.631
REMARK  2 active torsions:
REMARK  status: ('A' for Active; 'I' for Inactive)
REMARK    1  A    between atoms: C4_4  and  C6_6 
REMARK    2  A    between atoms: C6_6  and  N1_20 
ROOT
ATOM      1  C7  <0> d  11     -19.541  12.054  -8.171  0.00  0.00     0.052 A 
ATOM      2  C8  <0> d  11     -18.214  12.102  -7.773  0.00  0.00     0.031 A 
ATOM      3  C9  <0> d  11     -17.898  12.239  -6.433  0.00  0.00     0.002 A 
ATOM      4  C10 <0> d  11     -18.897  12.328  -5.483  0.00  0.00     0.002 A 
ATOM      5  C11 <0> d  11     -20.228  12.282  -5.870  0.00  0.00     0.021 A 
ATOM      6  C12 <0> d  11     -20.548  12.146  -7.206  0.00  0.00     0.032 A 
ATOM      7  C13 <0> d  11     -22.136  11.115  -9.202  0.00  0.00     0.032 A 
ATOM      8  C14 <0> d  11     -20.953  11.136  -9.945  0.00  0.00     0.052 A 
ATOM      9  C15 <0> d  11     -20.865  10.380 -11.103  0.00  0.00     0.031 A 
ATOM     10  C16 <0> d  11     -21.942   9.614 -11.512  0.00  0.00     0.002 A 
ATOM     11  C17 <0> d  11     -23.110   9.596 -10.774  0.00  0.00     0.002 A 
ATOM     12  C18 <0> d  11     -23.209  10.348  -9.615  0.00  0.00     0.021 A 
ATOM     13  N1  <0> d  11     -19.867  11.913  -9.523  0.00  0.00    -0.344 N 
ATOM     14  S1  <0> d  11     -22.233  12.084  -7.729  0.00  0.00    -0.086 SA
ENDROOT
BRANCH  13  15
ATOM     15  C6  <0> d  11     -19.049  12.596 -10.529  0.00  0.00     0.136 C 
BRANCH  15  16
ATOM     16  C4  <0> d  11     -19.189  14.109 -10.356  0.00  0.00     0.031 C 
ATOM     17  C3  <0> d  11     -18.282  14.863 -11.364  0.00  0.00     0.035 C 
ATOM     18  C2  <0> d  11     -19.030  16.212 -11.511  0.00  0.00     0.234 C 
ATOM     19  N2  <0> d  11     -20.459  15.843 -11.480  0.00  0.00    -0.074 N 
ATOM     20  C1  <0> d  11     -21.250  16.913 -10.816  0.00  0.00     0.269 C 
ATOM     21  C5  <0> d  11     -20.607  14.574 -10.750  0.00  0.00     0.240 C 
ATOM     22  H21 <0> d  11     -20.799  15.724 -12.441  0.00  0.00     0.279 HD
ENDBRANCH  15  16
ENDBRANCH  13  15
TORSDOF 2
ENDMDL
