REMARK INTER + INTRA:          -8.224
REMARK INTER:                  -7.628
REMARK INTRA:                  -0.596
REMARK UNBOUND:                -0.633
REMARK  3 active torsions:
REMARK  status: ('A' for Active; 'I' for Inactive)
REMARK    1  A    between atoms: C4_4  and  C7_7 
REMARK    2  A    between atoms: C14_14  and  C16_16 
REMARK    3  A    between atoms: C16_16  and  C17_17 
ROOT
ATOM      1  C7  <0> d  11     -21.203  13.704 -11.415  0.00  0.00     0.090 A 
ATOM      2  C8  <0> d  11     -22.451  14.184 -11.668  0.00  0.00     0.093 A 
ATOM      3  C9  <0> d  11     -22.632  15.568 -11.896  0.00  0.00     0.187 A 
ATOM      4  C10 <0> d  11     -21.431  16.425 -11.856  0.00  0.00     0.048 A 
ATOM      5  C11 <0> d  11     -21.513  17.799 -12.073  0.00  0.00     0.018 A 
ATOM      6  C12 <0> d  11     -20.368  18.565 -12.027  0.00  0.00     0.002 A 
ATOM      7  C13 <0> d  11     -19.141  17.973 -11.765  0.00  0.00     0.010 A 
ATOM      8  C14 <0> d  11     -19.047  16.615 -11.550  0.00  0.00    -0.013 A 
ATOM      9  C15 <0> d  11     -20.190  15.825 -11.592  0.00  0.00     0.097 A 
ATOM     10  O1  <0> d  11     -23.737  16.035 -12.120  0.00  0.00    -0.287 OA
ATOM     11  O2  <0> d  11     -20.119  14.494 -11.382  0.00  0.00    -0.308 OA
ENDROOT
BRANCH   1  12
ATOM     12  C4  <0> d  11     -21.034  12.257 -11.175  0.00  0.00    -0.002 A 
ATOM     13  C3  <0> d  11     -21.790  11.333 -11.899  0.00  0.00     0.014 A 
ATOM     14  C2  <0> d  11     -21.627   9.983 -11.669  0.00  0.00     0.001 A 
ATOM     15  C1  <0> d  11     -20.718   9.543 -10.722  0.00  0.00     0.000 A 
ATOM     16  C6  <0> d  11     -19.966  10.453 -10.002  0.00  0.00     0.001 A 
ATOM     17  C5  <0> d  11     -20.114  11.807 -10.225  0.00  0.00     0.014 A 
ENDBRANCH   1  12
BRANCH   8  18
ATOM     18  C16 <0> d  11     -17.706  15.987 -11.268  0.00  0.00     0.154 C 
BRANCH  18  19
ATOM     19  C17 <0> d  11     -17.237  16.396  -9.896  0.00  0.00     0.177 C 
ATOM     20  O3  <0> d  11     -17.600  15.778  -8.923  0.00  0.00    -0.648 OA
ATOM     21  O4  <0> d  11     -16.416  17.449  -9.754  0.00  0.00    -0.648 OA
ENDBRANCH  18  19
ENDBRANCH   8  18
TORSDOF 3
ENDMDL
