MODEL 1
REMARK VINA RESULT:    -6.111      0.000      0.000
REMARK INTER + INTRA:          -7.483
REMARK INTER:                  -6.967
REMARK INTRA:                  -0.516
REMARK UNBOUND:                -0.657
REMARK  2 active torsions:
REMARK  status: ('A' for Active; 'I' for Inactive)
REMARK    1  A    between atoms: C4_4  and  C6_6 
REMARK    2  A    between atoms: C6_6  and  N1_20 
ROOT
ATOM      1  C7  <0> d  11     -21.039  11.452 -10.539  0.00  0.00     0.052 A 
ATOM      2  C8  <0> d  11     -20.880  10.095 -10.769  0.00  0.00     0.031 A 
ATOM      3  C9  <0> d  11     -21.974   9.316 -11.100  0.00  0.00     0.002 A 
ATOM      4  C10 <0> d  11     -23.230   9.882 -11.206  0.00  0.00     0.002 A 
ATOM      5  C11 <0> d  11     -23.402  11.238 -10.977  0.00  0.00     0.021 A 
ATOM      6  C12 <0> d  11     -22.312  12.019 -10.644  0.00  0.00     0.032 A 
ATOM      7  C13 <0> d  11     -20.914  14.384 -10.803  0.00  0.00     0.032 A 
ATOM      8  C14 <0> d  11     -19.797  13.554 -10.681  0.00  0.00     0.052 A 
ATOM      9  C15 <0> d  11     -18.548  14.041 -11.035  0.00  0.00     0.031 A 
ATOM     10  C16 <0> d  11     -18.419  15.335 -11.505  0.00  0.00     0.002 A 
ATOM     11  C17 <0> d  11     -19.527  16.152 -11.625  0.00  0.00     0.002 A 
ATOM     12  C18 <0> d  11     -20.780  15.676 -11.273  0.00  0.00     0.021 A 
ATOM     13  N1  <0> d  11     -19.936  12.245 -10.205  0.00  0.00    -0.344 N 
ATOM     14  S1  <0> d  11     -22.499  13.749 -10.347  0.00  0.00    -0.086 SA
ENDROOT
BRANCH  13  15
ATOM     15  C6  <0> d  11     -18.897  11.690  -9.335  0.00  0.00     0.136 C 
BRANCH  15  16
ATOM     16  C4  <0> d  11     -18.836  12.495  -8.035  0.00  0.00     0.031 C 
ATOM     17  C3  <0> d  11     -20.104  12.244  -7.177  0.00  0.00     0.035 C 
ATOM     18  C2  <0> d  11     -19.577  12.535  -5.749  0.00  0.00     0.234 C 
ATOM     19  N2  <0> d  11     -18.204  11.993  -5.748  0.00  0.00    -0.074 N 
ATOM     20  C1  <0> d  11     -17.326  12.827  -4.885  0.00  0.00     0.269 C 
ATOM     21  C5  <0> d  11     -17.696  11.983  -7.129  0.00  0.00     0.240 C 
ATOM     22  H21 <0> d  11     -18.217  11.033  -5.384  0.00  0.00     0.279 HD
ENDBRANCH  15  16
ENDBRANCH  13  15
TORSDOF 2
ENDMDL
MODEL 2
REMARK VINA RESULT:    -5.686      1.434      5.340
REMARK INTER + INTRA:          -7.008
REMARK INTER:                  -6.515
REMARK INTRA:                  -0.493
REMARK UNBOUND:                -0.657
REMARK  2 active torsions:
REMARK  status: ('A' for Active; 'I' for Inactive)
REMARK    1  A    between atoms: C4_4  and  C6_6 
REMARK    2  A    between atoms: C6_6  and  N1_20 
ROOT
ATOM      1  C7  <0> d  11     -19.643  12.077  -8.157  0.00  0.00     0.052 A 
ATOM      2  C8  <0> d  11     -18.339  12.104  -7.691  0.00  0.00     0.031 A 
ATOM      3  C9  <0> d  11     -18.090  12.226  -6.336  0.00  0.00     0.002 A 
ATOM      4  C10 <0> d  11     -19.135  12.320  -5.438  0.00  0.00     0.002 A 
ATOM      5  C11 <0> d  11     -20.445  12.295  -5.892  0.00  0.00     0.021 A 
ATOM      6  C12 <0> d  11     -20.698  12.175  -7.245  0.00  0.00     0.032 A 
ATOM      7  C13 <0> d  11     -22.194  11.182  -9.329  0.00  0.00     0.032 A 
ATOM      8  C14 <0> d  11     -20.974  11.193 -10.009  0.00  0.00     0.052 A 
ATOM      9  C15 <0> d  11     -20.837  10.446 -11.168  0.00  0.00     0.031 A 
ATOM     10  C16 <0> d  11     -21.901   9.698 -11.639  0.00  0.00     0.002 A 
ATOM     11  C17 <0> d  11     -23.106   9.690 -10.962  0.00  0.00     0.002 A 
ATOM     12  C18 <0> d  11     -23.254  10.433  -9.803  0.00  0.00     0.021 A 
ATOM     13  N1  <0> d  11     -19.902  11.952  -9.526  0.00  0.00    -0.344 N 
ATOM     14  S1  <0> d  11     -22.355  12.140  -7.854  0.00  0.00    -0.086 SA
ENDROOT
BRANCH  13  15
ATOM     15  C6  <0> d  11     -19.025  12.632 -10.482  0.00  0.00     0.136 C 
BRANCH  15  16
ATOM     16  C4  <0> d  11     -19.185  14.146 -10.334  0.00  0.00     0.031 C 
ATOM     17  C3  <0> d  11     -18.270  14.895 -11.338  0.00  0.00     0.035 C 
ATOM     18  C2  <0> d  11     -19.030  16.233 -11.517  0.00  0.00     0.234 C 
ATOM     19  N2  <0> d  11     -20.455  15.848 -11.506  0.00  0.00    -0.074 N 
ATOM     20  C1  <0> d  11     -21.269  16.918 -10.871  0.00  0.00     0.269 C 
ATOM     21  C5  <0> d  11     -20.602  14.589 -10.759  0.00  0.00     0.240 C 
ATOM     22  H21 <0> d  11     -20.778  15.710 -12.471  0.00  0.00     0.279 HD
ENDBRANCH  15  16
ENDBRANCH  13  15
TORSDOF 2
ENDMDL
MODEL 3
REMARK VINA RESULT:    -5.669      2.469      3.948
REMARK INTER + INTRA:          -6.989
REMARK INTER:                  -6.478
REMARK INTRA:                  -0.511
REMARK UNBOUND:                -0.657
REMARK  2 active torsions:
REMARK  status: ('A' for Active; 'I' for Inactive)
REMARK    1  A    between atoms: C4_4  and  C6_6 
REMARK    2  A    between atoms: C6_6  and  N1_20 
ROOT
ATOM      1  C7  <0> d  11     -22.337  11.855 -11.413  0.00  0.00     0.052 A 
ATOM      2  C8  <0> d  11     -21.590  10.832 -11.975  0.00  0.00     0.031 A 
ATOM      3  C9  <0> d  11     -21.741   9.534 -11.520  0.00  0.00     0.002 A 
ATOM      4  C10 <0> d  11     -22.634   9.248 -10.505  0.00  0.00     0.002 A 
ATOM      5  C11 <0> d  11     -23.386  10.263  -9.935  0.00  0.00     0.021 A 
ATOM      6  C12 <0> d  11     -23.238  11.560 -10.386  0.00  0.00     0.032 A 
ATOM      7  C13 <0> d  11     -24.299  14.018 -11.021  0.00  0.00     0.032 A 
ATOM      8  C14 <0> d  11     -23.281  14.039 -11.978  0.00  0.00     0.052 A 
ATOM      9  C15 <0> d  11     -23.363  14.932 -13.035  0.00  0.00     0.031 A 
ATOM     10  C16 <0> d  11     -24.445  15.789 -13.135  0.00  0.00     0.002 A 
ATOM     11  C17 <0> d  11     -25.449  15.763 -12.185  0.00  0.00     0.002 A 
ATOM     12  C18 <0> d  11     -25.377  14.875 -11.125  0.00  0.00     0.021 A 
ATOM     13  N1  <0> d  11     -22.191  13.169 -11.871  0.00  0.00    -0.344 N 
ATOM     14  S1  <0> d  11     -24.181  12.875  -9.679  0.00  0.00    -0.086 SA
ENDROOT
BRANCH  13  15
ATOM     15  C6  <0> d  11     -20.859  13.647 -12.251  0.00  0.00     0.136 C 
BRANCH  15  16
ATOM     16  C4  <0> d  11     -20.307  14.549 -11.145  0.00  0.00     0.031 C 
ATOM     17  C3  <0> d  11     -20.095  13.743  -9.836  0.00  0.00     0.035 C 
ATOM     18  C2  <0> d  11     -18.977  14.562  -9.144  0.00  0.00     0.234 C 
ATOM     19  N2  <0> d  11     -18.096  14.988 -10.250  0.00  0.00    -0.074 N 
ATOM     20  C1  <0> d  11     -17.525  16.330  -9.961  0.00  0.00     0.269 C 
ATOM     21  C5  <0> d  11     -18.881  15.027 -11.493  0.00  0.00     0.240 C 
ATOM     22  H21 <0> d  11     -17.329  14.313 -10.353  0.00  0.00     0.279 HD
ENDBRANCH  15  16
ENDBRANCH  13  15
TORSDOF 2
ENDMDL
MODEL 4
REMARK VINA RESULT:    -5.519      1.499      2.101
REMARK INTER + INTRA:          -6.821
REMARK INTER:                  -6.160
REMARK INTRA:                  -0.661
REMARK UNBOUND:                -0.657
REMARK  2 active torsions:
REMARK  status: ('A' for Active; 'I' for Inactive)
REMARK    1  A    between atoms: C4_4  and  C6_6 
REMARK    2  A    between atoms: C6_6  and  N1_20 
ROOT
ATOM      1  C7  <0> d  11     -21.836  11.911 -10.914  0.00  0.00     0.052 A 
ATOM      2  C8  <0> d  11     -21.222  10.800 -11.467  0.00  0.00     0.031 A 
ATOM      3  C9  <0> d  11     -21.917   9.609 -11.581  0.00  0.00     0.002 A 
ATOM      4  C10 <0> d  11     -23.225   9.518 -11.146  0.00  0.00     0.002 A 
ATOM      5  C11 <0> d  11     -23.850  10.623 -10.590  0.00  0.00     0.021 A 
ATOM      6  C12 <0> d  11     -23.159  11.813 -10.473  0.00  0.00     0.032 A 
ATOM      7  C13 <0> d  11     -23.078  14.562 -10.572  0.00  0.00     0.032 A 
ATOM      8  C14 <0> d  11     -21.764  14.354 -11.002  0.00  0.00     0.052 A 
ATOM      9  C15 <0> d  11     -21.087  15.386 -11.633  0.00  0.00     0.031 A 
ATOM     10  C16 <0> d  11     -21.711  16.604 -11.831  0.00  0.00     0.002 A 
ATOM     11  C17 <0> d  11     -23.010  16.804 -11.404  0.00  0.00     0.002 A 
ATOM     12  C18 <0> d  11     -23.697  15.780 -10.772  0.00  0.00     0.021 A 
ATOM     13  N1  <0> d  11     -21.140  13.119 -10.798  0.00  0.00    -0.344 N 
ATOM     14  S1  <0> d  11     -23.928  13.238  -9.769  0.00  0.00    -0.086 SA
ENDROOT
BRANCH  13  15
ATOM     15  C6  <0> d  11     -19.716  13.090 -10.456  0.00  0.00     0.136 C 
BRANCH  15  16
ATOM     16  C4  <0> d  11     -19.557  13.001  -8.937  0.00  0.00     0.031 C 
ATOM     17  C3  <0> d  11     -18.684  11.779  -8.548  0.00  0.00     0.035 C 
ATOM     18  C2  <0> d  11     -18.103  12.233  -7.185  0.00  0.00     0.234 C 
ATOM     19  N2  <0> d  11     -17.843  13.675  -7.360  0.00  0.00    -0.074 N 
ATOM     20  C1  <0> d  11     -18.073  14.395  -6.079  0.00  0.00     0.269 C 
ATOM     21  C5  <0> d  11     -18.740  14.196  -8.403  0.00  0.00     0.240 C 
ATOM     22  H21 <0> d  11     -16.868  13.813  -7.651  0.00  0.00     0.279 HD
ENDBRANCH  15  16
ENDBRANCH  13  15
TORSDOF 2
ENDMDL
MODEL 5
REMARK VINA RESULT:    -5.395      2.594      6.431
REMARK INTER + INTRA:          -6.683
REMARK INTER:                  -6.025
REMARK INTRA:                  -0.657
REMARK UNBOUND:                -0.657
REMARK  2 active torsions:
REMARK  status: ('A' for Active; 'I' for Inactive)
REMARK    1  A    between atoms: C4_4  and  C6_6 
REMARK    2  A    between atoms: C6_6  and  N1_20 
ROOT
ATOM      1  C7  <0> d  11     -19.922  14.296 -10.814  0.00  0.00     0.052 A 
ATOM      2  C8  <0> d  11     -19.277  15.251 -11.584  0.00  0.00     0.031 A 
ATOM      3  C9  <0> d  11     -18.287  16.038 -11.024  0.00  0.00     0.002 A 
ATOM      4  C10 <0> d  11     -17.933  15.880  -9.698  0.00  0.00     0.002 A 
ATOM      5  C11 <0> d  11     -18.572  14.929  -8.918  0.00  0.00     0.021 A 
ATOM      6  C12 <0> d  11     -19.561  14.142  -9.473  0.00  0.00     0.032 A 
ATOM      7  C13 <0> d  11     -20.850  11.723  -9.719  0.00  0.00     0.032 A 
ATOM      8  C14 <0> d  11     -21.066  12.145 -11.033  0.00  0.00     0.052 A 
ATOM      9  C15 <0> d  11     -21.426  11.214 -11.994  0.00  0.00     0.031 A 
ATOM     10  C16 <0> d  11     -21.565   9.882 -11.649  0.00  0.00     0.002 A 
ATOM     11  C17 <0> d  11     -21.350   9.469 -10.347  0.00  0.00     0.002 A 
ATOM     12  C18 <0> d  11     -20.990  10.391  -9.378  0.00  0.00     0.021 A 
ATOM     13  N1  <0> d  11     -20.922  13.495 -11.375  0.00  0.00    -0.344 N 
ATOM     14  S1  <0> d  11     -20.393  12.922  -8.504  0.00  0.00    -0.086 SA
ENDROOT
BRANCH  13  15
ATOM     15  C6  <0> d  11     -21.844  14.083 -12.349  0.00  0.00     0.136 C 
BRANCH  15  16
ATOM     16  C4  <0> d  11     -23.024  14.721 -11.615  0.00  0.00     0.031 C 
ATOM     17  C3  <0> d  11     -23.286  16.157 -12.142  0.00  0.00     0.035 C 
ATOM     18  C2  <0> d  11     -24.793  16.334 -11.829  0.00  0.00     0.234 C 
ATOM     19  N2  <0> d  11     -25.382  15.009 -12.103  0.00  0.00    -0.074 N 
ATOM     20  C1  <0> d  11     -26.504  14.744 -11.164  0.00  0.00     0.269 C 
ATOM     21  C5  <0> d  11     -24.338  13.984 -11.948  0.00  0.00     0.240 C 
ATOM     22  H21 <0> d  11     -25.739  14.987 -13.065  0.00  0.00     0.279 HD
ENDBRANCH  15  16
ENDBRANCH  13  15
TORSDOF 2
ENDMDL
