REMARK INTER + INTRA:          -9.684
REMARK INTER:                  -8.229
REMARK INTRA:                  -1.455
REMARK UNBOUND:                -1.555
REMARK  4 active torsions:
REMARK  status: ('A' for Active; 'I' for Inactive)
REMARK    1  A    between atoms: C4_4  and  N1_25 
REMARK    2  A    between atoms: C8_8  and  C16_16 
REMARK    3  A    between atoms: C9_9  and  C10_10 
REMARK    4  A    between atoms: C16_16  and  C17_17 
ROOT
ATOM      1  C7  <0> d  11     -19.148  13.215 -10.858  0.00  0.00     0.271 A 
ATOM      2  C8  <0> d  11     -19.084  12.357  -9.741  0.00  0.00     0.044 A 
ATOM      3  C9  <0> d  11     -18.820  13.118  -8.641  0.00  0.00     0.070 A 
ATOM      4  H1  <0> d  11     -18.521  15.187  -8.473  0.00  0.00     0.187 HD
ATOM      5  N1  <0> d  11     -18.920  14.472 -10.430  0.00  0.00    -0.252 N 
ATOM      6  N2  <0> d  11     -18.708  14.428  -9.046  0.00  0.00    -0.294 N 
ATOM      7  O1  <0> d  11     -19.372  12.878 -12.007  0.00  0.00    -0.266 OA
ENDROOT
BRANCH   5   8
ATOM      8  C4  <0> d  11     -18.895  15.675 -11.267  0.00  0.00     0.115 C 
ATOM      9  C3  <0> d  11     -20.091  16.565 -10.918  0.00  0.00     0.055 C 
ATOM     10  C2  <0> d  11     -20.026  17.847 -11.751  0.00  0.00     0.236 C 
ATOM     11  N3  <0> d  11     -18.768  18.559 -11.439  0.00  0.00    -0.075 N 
ATOM     12  C1  <0> d  11     -18.734  19.856 -12.145  0.00  0.00     0.269 C 
ATOM     13  C6  <0> d  11     -17.607  17.736 -11.840  0.00  0.00     0.236 C 
ATOM     14  H26 <0> d  11     -18.722  18.728 -10.427  0.00  0.00     0.279 HD
ATOM     15  C5  <0> d  11     -17.599  16.450 -11.009  0.00  0.00     0.055 C 
ENDBRANCH   5   8
BRANCH   3  16
ATOM     16  C10 <0> d  11     -18.675  12.621  -7.257  0.00  0.00    -0.007 A 
ATOM     17  C15 <0> d  11     -19.758  12.670  -6.377  0.00  0.00     0.014 A 
ATOM     18  C14 <0> d  11     -19.616  12.205  -5.087  0.00  0.00     0.001 A 
ATOM     19  C13 <0> d  11     -18.403  11.691  -4.663  0.00  0.00     0.000 A 
ATOM     20  C12 <0> d  11     -17.326  11.638  -5.529  0.00  0.00     0.001 A 
ATOM     21  C11 <0> d  11     -17.457  12.095  -6.825  0.00  0.00     0.014 A 
ENDBRANCH   3  16
BRANCH   2  22
ATOM     22  C16 <0> d  11     -19.279  10.863  -9.759  0.00  0.00     0.085 C 
BRANCH  22  23
ATOM     23  C17 <0> d  11     -20.735  10.549  -9.992  0.00  0.00    -0.054 A 
ATOM     24  C22 <0> d  11     -21.128   9.918 -11.157  0.00  0.00     0.007 A 
ATOM     25  C21 <0> d  11     -22.463   9.630 -11.371  0.00  0.00     0.001 A 
ATOM     26  C20 <0> d  11     -23.404   9.972 -10.419  0.00  0.00     0.000 A 
ATOM     27  C19 <0> d  11     -23.011  10.600  -9.252  0.00  0.00     0.001 A 
ATOM     28  C18 <0> d  11     -21.676  10.892  -9.040  0.00  0.00     0.007 A 
ENDBRANCH  22  23
ENDBRANCH   2  22
TORSDOF 4
ENDMDL
