REMARK INTER + INTRA:          -5.472
REMARK INTER:                  -5.359
REMARK INTRA:                  -0.113
REMARK UNBOUND:                -0.101
REMARK  3 active torsions:
REMARK  status: ('A' for Active; 'I' for Inactive)
REMARK    1  A    between atoms: C3_3  and  S1_15 
REMARK    2  A    between atoms: C6_6  and  C7_7 
REMARK    3  A    between atoms: S1_15  and  N1_10 
ROOT
ATOM      1  C1  <0> d  11     -19.627  12.957  -9.824  0.00  0.00     0.020 A 
ATOM      2  C2  <0> d  11     -20.526  11.916  -9.925  0.00  0.00     0.026 A 
ATOM      3  C3  <0> d  11     -21.105  11.614 -11.144  0.00  0.00     0.079 A 
ATOM      4  C4  <0> d  11     -20.790  12.355 -12.270  0.00  0.00     0.026 A 
ATOM      5  C5  <0> d  11     -19.896  13.403 -12.182  0.00  0.00     0.020 A 
ATOM      6  C6  <0> d  11     -19.310  13.713 -10.954  0.00  0.00     0.040 A 
ENDROOT
BRANCH   3   7
ATOM      7  S1  <0> d  11     -22.247  10.278 -11.266  0.00  0.00     0.256 S 
ATOM      8  O2  <0> d  11     -23.523  10.855 -11.505  0.00  0.00    -0.201 OA
ATOM      9  O3  <0> d  11     -21.665   9.324 -12.146  0.00  0.00    -0.201 OA
BRANCH   7  10
ATOM     10  N1  <0> d  11     -22.323   9.562  -9.776  0.00  0.00    -0.324 N 
ATOM     11  H5  <0> d  11     -22.813   8.732  -9.661  0.00  0.00     0.169 HD
ATOM     12  H6  <0> d  11     -21.877   9.970  -9.018  0.00  0.00     0.169 HD
ENDBRANCH   7  10
ENDBRANCH   3   7
BRANCH   6  13
ATOM     13  C7  <0> d  11     -18.351  14.834 -10.852  0.00  0.00     0.209 C 
ATOM     14  O1  <0> d  11     -18.017  15.439 -11.851  0.00  0.00    -0.644 OA
ATOM     15  O4  <0> d  11     -17.853  15.187  -9.652  0.00  0.00    -0.644 OA
ENDBRANCH   6  13
TORSDOF 3
ENDMDL
