REMARK INTER + INTRA:          -5.281
REMARK INTER:                  -5.179
REMARK INTRA:                  -0.101
REMARK UNBOUND:                -0.101
REMARK  3 active torsions:
REMARK  status: ('A' for Active; 'I' for Inactive)
REMARK    1  A    between atoms: C3_3  and  S1_15 
REMARK    2  A    between atoms: C6_6  and  C7_7 
REMARK    3  A    between atoms: S1_15  and  N1_10 
ROOT
ATOM      1  C1  <0> d  11     -20.919  11.827 -10.053  0.00  0.00     0.020 A 
ATOM      2  C2  <0> d  11     -20.166  12.966  -9.858  0.00  0.00     0.026 A 
ATOM      3  C3  <0> d  11     -19.826  13.767 -10.933  0.00  0.00     0.079 A 
ATOM      4  C4  <0> d  11     -20.236  13.430 -12.212  0.00  0.00     0.026 A 
ATOM      5  C5  <0> d  11     -20.985  12.291 -12.422  0.00  0.00     0.020 A 
ATOM      6  C6  <0> d  11     -21.330  11.478 -11.341  0.00  0.00     0.040 A 
ENDROOT
BRANCH   3   7
ATOM      7  S1  <0> d  11     -18.870  15.224 -10.674  0.00  0.00     0.256 S 
ATOM      8  O2  <0> d  11     -17.859  15.229 -11.673  0.00  0.00    -0.201 OA
ATOM      9  O3  <0> d  11     -19.793  16.294 -10.518  0.00  0.00    -0.201 OA
BRANCH   7  10
ATOM     10  N1  <0> d  11     -18.098  15.050  -9.220  0.00  0.00    -0.324 N 
ATOM     11  H5  <0> d  11     -17.129  15.068  -9.181  0.00  0.00     0.169 HD
ATOM     12  H6  <0> d  11     -18.614  14.931  -8.408  0.00  0.00     0.169 HD
ENDBRANCH   7  10
ENDBRANCH   3   7
BRANCH   6  13
ATOM     13  C7  <0> d  11     -22.132  10.256 -11.559  0.00  0.00     0.209 C 
ATOM     14  O1  <0> d  11     -21.594   9.237 -11.942  0.00  0.00    -0.644 OA
ATOM     15  O4  <0> d  11     -23.460  10.271 -11.328  0.00  0.00    -0.644 OA
ENDBRANCH   6  13
TORSDOF 3
ENDMDL
