REMARK INTER + INTRA:         -10.268
REMARK INTER:                  -8.756
REMARK INTRA:                  -1.513
REMARK UNBOUND:                -1.580
REMARK  4 active torsions:
REMARK  status: ('A' for Active; 'I' for Inactive)
REMARK    1  A    between atoms: C4_4  and  N1_25 
REMARK    2  A    between atoms: C8_8  and  C16_16 
REMARK    3  A    between atoms: C9_9  and  C10_10 
REMARK    4  A    between atoms: C16_16  and  C17_17 
ROOT
ATOM      1  C7  <0> d  11     -24.930  13.769 -11.852  0.00  0.00     0.271 A 
ATOM      2  C8  <0> d  11     -23.664  13.586 -11.260  0.00  0.00     0.044 A 
ATOM      3  C9  <0> d  11     -22.741  14.226 -12.033  0.00  0.00     0.070 A 
ATOM      4  H1  <0> d  11     -22.993  15.312 -13.810  0.00  0.00     0.187 HD
ATOM      5  N1  <0> d  11     -24.765  14.505 -12.968  0.00  0.00    -0.252 N 
ATOM      6  N2  <0> d  11     -23.401  14.795 -13.098  0.00  0.00    -0.294 N 
ATOM      7  O1  <0> d  11     -25.988  13.337 -11.427  0.00  0.00    -0.266 OA
ENDROOT
BRANCH   5   8
ATOM      8  C4  <0> d  11     -25.826  14.926 -13.887  0.00  0.00     0.115 C 
ATOM      9  C3  <0> d  11     -26.688  15.998 -13.216  0.00  0.00     0.055 C 
ATOM     10  C2  <0> d  11     -27.756  16.477 -14.201  0.00  0.00     0.236 C 
ATOM     11  N3  <0> d  11     -27.092  17.045 -15.392  0.00  0.00    -0.075 N 
ATOM     12  C1  <0> d  11     -28.099  17.618 -16.309  0.00  0.00     0.269 C 
ATOM     13  C6  <0> d  11     -26.315  15.997 -16.088  0.00  0.00     0.236 C 
ATOM     14  H26 <0> d  11     -26.452  17.791 -15.093  0.00  0.00     0.279 HD
ATOM     15  C5  <0> d  11     -25.203  15.505 -15.159  0.00  0.00     0.055 C 
ENDBRANCH   5   8
BRANCH   3  16
ATOM     16  C10 <0> d  11     -21.288  14.293 -11.775  0.00  0.00    -0.007 A 
ATOM     17  C15 <0> d  11     -20.431  13.348 -12.342  0.00  0.00     0.014 A 
ATOM     18  C14 <0> d  11     -19.075  13.417 -12.097  0.00  0.00     0.001 A 
ATOM     19  C13 <0> d  11     -18.565  14.418 -11.289  0.00  0.00     0.000 A 
ATOM     20  C12 <0> d  11     -19.409  15.358 -10.724  0.00  0.00     0.001 A 
ATOM     21  C11 <0> d  11     -20.766  15.304 -10.967  0.00  0.00     0.014 A 
ENDBRANCH   3  16
BRANCH   2  22
ATOM     22  C16 <0> d  11     -23.379  12.821  -9.992  0.00  0.00     0.085 C 
BRANCH  22  23
ATOM     23  C17 <0> d  11     -22.464  11.664 -10.299  0.00  0.00    -0.054 A 
ATOM     24  C22 <0> d  11     -22.779  10.784 -11.317  0.00  0.00     0.007 A 
ATOM     25  C21 <0> d  11     -21.939   9.722 -11.599  0.00  0.00     0.001 A 
ATOM     26  C20 <0> d  11     -20.783   9.542 -10.862  0.00  0.00     0.000 A 
ATOM     27  C19 <0> d  11     -20.466  10.425  -9.847  0.00  0.00     0.001 A 
ATOM     28  C18 <0> d  11     -21.309  11.483  -9.562  0.00  0.00     0.007 A 
ENDBRANCH  22  23
ENDBRANCH   2  22
TORSDOF 4
ENDMDL
