REMARK INTER + INTRA:          -5.456
REMARK INTER:                  -5.344
REMARK INTRA:                  -0.112
REMARK UNBOUND:                -0.101
REMARK  3 active torsions:
REMARK  status: ('A' for Active; 'I' for Inactive)
REMARK    1  A    between atoms: C3_3  and  S1_15 
REMARK    2  A    between atoms: C6_6  and  C7_7 
REMARK    3  A    between atoms: S1_15  and  N1_10 
ROOT
ATOM      1  C1  <0> d  11     -19.384  12.789  -9.909  0.00  0.00     0.020 A 
ATOM      2  C2  <0> d  11     -20.284  11.748 -10.010  0.00  0.00     0.026 A 
ATOM      3  C3  <0> d  11     -21.057  11.605 -11.148  0.00  0.00     0.079 A 
ATOM      4  C4  <0> d  11     -20.936  12.507 -12.192  0.00  0.00     0.026 A 
ATOM      5  C5  <0> d  11     -20.044  13.555 -12.103  0.00  0.00     0.020 A 
ATOM      6  C6  <0> d  11     -19.262  13.705 -10.956  0.00  0.00     0.040 A 
ENDROOT
BRANCH   3   7
ATOM      7  S1  <0> d  11     -22.199  10.269 -11.271  0.00  0.00     0.256 S 
ATOM      8  O2  <0> d  11     -23.475  10.847 -11.509  0.00  0.00    -0.201 OA
ATOM      9  O3  <0> d  11     -21.617   9.317 -12.152  0.00  0.00    -0.201 OA
BRANCH   7  10
ATOM     10  N1  <0> d  11     -22.274   9.551  -9.781  0.00  0.00    -0.324 N 
ATOM     11  H5  <0> d  11     -22.866   9.909  -9.101  0.00  0.00     0.169 HD
ATOM     12  H6  <0> d  11     -21.727   8.774  -9.589  0.00  0.00     0.169 HD
ENDBRANCH   7  10
ENDBRANCH   3   7
BRANCH   6  13
ATOM     13  C7  <0> d  11     -18.304  14.826 -10.853  0.00  0.00     0.209 C 
ATOM     14  O1  <0> d  11     -17.955  15.419 -11.854  0.00  0.00    -0.644 OA
ATOM     15  O4  <0> d  11     -17.823  15.193  -9.650  0.00  0.00    -0.644 OA
ENDBRANCH   6  13
TORSDOF 3
ENDMDL
