REMARK INTER + INTRA:          -7.881
REMARK INTER:                  -7.328
REMARK INTRA:                  -0.553
REMARK UNBOUND:                -0.633
REMARK  3 active torsions:
REMARK  status: ('A' for Active; 'I' for Inactive)
REMARK    1  A    between atoms: C4_4  and  C7_7 
REMARK    2  A    between atoms: C14_14  and  C16_16 
REMARK    3  A    between atoms: C16_16  and  C17_17 
ROOT
ATOM      1  C7  <0> d  11     -23.675  14.220 -12.480  0.00  0.00     0.090 A 
ATOM      2  C8  <0> d  11     -24.796  13.641 -11.973  0.00  0.00     0.093 A 
ATOM      3  C9  <0> d  11     -24.704  12.378 -11.342  0.00  0.00     0.187 A 
ATOM      4  C10 <0> d  11     -23.367  11.757 -11.261  0.00  0.00     0.048 A 
ATOM      5  C11 <0> d  11     -23.180  10.516 -10.654  0.00  0.00     0.018 A 
ATOM      6  C12 <0> d  11     -21.916   9.970 -10.598  0.00  0.00     0.002 A 
ATOM      7  C13 <0> d  11     -20.836  10.648 -11.144  0.00  0.00     0.010 A 
ATOM      8  C14 <0> d  11     -21.008  11.876 -11.746  0.00  0.00    -0.013 A 
ATOM      9  C15 <0> d  11     -22.275  12.445 -11.812  0.00  0.00     0.097 A 
ATOM     10  O1  <0> d  11     -25.689  11.826 -10.881  0.00  0.00    -0.287 OA
ATOM     11  O2  <0> d  11     -22.465  13.644 -12.399  0.00  0.00    -0.308 OA
ENDROOT
BRANCH   1  12
ATOM     12  C4  <0> d  11     -23.792  15.536 -13.139  0.00  0.00    -0.002 A 
ATOM     13  C3  <0> d  11     -24.523  15.665 -14.323  0.00  0.00     0.014 A 
ATOM     14  C2  <0> d  11     -24.628  16.897 -14.933  0.00  0.00     0.001 A 
ATOM     15  C1  <0> d  11     -24.011  18.005 -14.377  0.00  0.00     0.000 A 
ATOM     16  C6  <0> d  11     -23.286  17.884 -13.205  0.00  0.00     0.001 A 
ATOM     17  C5  <0> d  11     -23.177  16.658 -12.580  0.00  0.00     0.014 A 
ENDBRANCH   1  12
BRANCH   8  18
ATOM     18  C16 <0> d  11     -19.825  12.602 -12.333  0.00  0.00     0.154 C 
BRANCH  18  19
ATOM     19  C17 <0> d  11     -19.082  13.321 -11.236  0.00  0.00     0.177 C 
ATOM     20  O3  <0> d  11     -19.290  14.494 -11.034  0.00  0.00    -0.648 OA
ATOM     21  O4  <0> d  11     -18.188  12.658 -10.486  0.00  0.00    -0.648 OA
ENDBRANCH  18  19
ENDBRANCH   8  18
TORSDOF 3
ENDMDL
