MODEL 1
REMARK VINA RESULT:    -7.068      0.000      0.000
REMARK INTER + INTRA:         -10.275
REMARK INTER:                  -8.726
REMARK INTRA:                  -1.550
REMARK UNBOUND:                -1.555
REMARK  4 active torsions:
REMARK  status: ('A' for Active; 'I' for Inactive)
REMARK    1  A    between atoms: C4_4  and  N1_25 
REMARK    2  A    between atoms: C8_8  and  C16_16 
REMARK    3  A    between atoms: C9_9  and  C10_10 
REMARK    4  A    between atoms: C16_16  and  C17_17 
ROOT
ATOM      1  C7  <0> d  11     -24.951  13.797 -11.865  0.00  0.00     0.271 A 
ATOM      2  C8  <0> d  11     -23.683  13.617 -11.275  0.00  0.00     0.044 A 
ATOM      3  C9  <0> d  11     -22.761  14.243 -12.060  0.00  0.00     0.070 A 
ATOM      4  H1  <0> d  11     -23.015  15.308 -13.850  0.00  0.00     0.187 HD
ATOM      5  N1  <0> d  11     -24.787  14.518 -12.991  0.00  0.00    -0.252 N 
ATOM      6  N2  <0> d  11     -23.422  14.802 -13.130  0.00  0.00    -0.294 N 
ATOM      7  O1  <0> d  11     -26.009  13.375 -11.431  0.00  0.00    -0.266 OA
ENDROOT
BRANCH   5   8
ATOM      8  C4  <0> d  11     -25.850  14.932 -13.911  0.00  0.00     0.115 C 
ATOM      9  C3  <0> d  11     -26.710  16.010 -13.246  0.00  0.00     0.055 C 
ATOM     10  C2  <0> d  11     -27.781  16.482 -14.233  0.00  0.00     0.236 C 
ATOM     11  N3  <0> d  11     -27.117  17.041 -15.430  0.00  0.00    -0.075 N 
ATOM     12  C1  <0> d  11     -28.127  17.607 -16.348  0.00  0.00     0.269 C 
ATOM     13  C6  <0> d  11     -26.341  15.989 -16.120  0.00  0.00     0.236 C 
ATOM     14  H26 <0> d  11     -26.476  17.788 -15.137  0.00  0.00     0.279 HD
ATOM     15  C5  <0> d  11     -25.228  15.502 -15.189  0.00  0.00     0.055 C 
ENDBRANCH   5   8
BRANCH   3  16
ATOM     16  C10 <0> d  11     -21.307  14.308 -11.807  0.00  0.00    -0.007 A 
ATOM     17  C15 <0> d  11     -20.454  13.360 -12.376  0.00  0.00     0.014 A 
ATOM     18  C14 <0> d  11     -19.097  13.427 -12.136  0.00  0.00     0.001 A 
ATOM     19  C13 <0> d  11     -18.581  14.429 -11.333  0.00  0.00     0.000 A 
ATOM     20  C12 <0> d  11     -19.421  15.372 -10.767  0.00  0.00     0.001 A 
ATOM     21  C11 <0> d  11     -20.779  15.320 -11.004  0.00  0.00     0.014 A 
ENDBRANCH   3  16
BRANCH   2  22
ATOM     22  C16 <0> d  11     -23.397  12.868  -9.999  0.00  0.00     0.085 C 
BRANCH  22  23
ATOM     23  C17 <0> d  11     -22.506  11.689 -10.298  0.00  0.00    -0.054 A 
ATOM     24  C22 <0> d  11     -22.836  10.813 -11.315  0.00  0.00     0.007 A 
ATOM     25  C21 <0> d  11     -22.018   9.733 -11.589  0.00  0.00     0.001 A 
ATOM     26  C20 <0> d  11     -20.871   9.529 -10.847  0.00  0.00     0.000 A 
ATOM     27  C19 <0> d  11     -20.538  10.408  -9.833  0.00  0.00     0.001 A 
ATOM     28  C18 <0> d  11     -21.358  11.486  -9.555  0.00  0.00     0.007 A 
ENDBRANCH  22  23
ENDBRANCH   2  22
TORSDOF 4
ENDMDL
MODEL 2
REMARK VINA RESULT:    -6.625      1.464      3.856
REMARK INTER + INTRA:          -9.728
REMARK INTER:                  -8.247
REMARK INTRA:                  -1.481
REMARK UNBOUND:                -1.555
REMARK  4 active torsions:
REMARK  status: ('A' for Active; 'I' for Inactive)
REMARK    1  A    between atoms: C4_4  and  N1_25 
REMARK    2  A    between atoms: C8_8  and  C16_16 
REMARK    3  A    between atoms: C9_9  and  C10_10 
REMARK    4  A    between atoms: C16_16  and  C17_17 
ROOT
ATOM      1  C7  <0> d  11     -23.669  15.473 -11.790  0.00  0.00     0.271 A 
ATOM      2  C8  <0> d  11     -22.993  14.442 -11.107  0.00  0.00     0.044 A 
ATOM      3  C9  <0> d  11     -23.395  13.252 -11.635  0.00  0.00     0.070 A 
ATOM      4  H1  <0> d  11     -24.768  12.854 -13.171  0.00  0.00     0.187 HD
ATOM      5  N1  <0> d  11     -24.470  14.904 -12.713  0.00  0.00    -0.252 N 
ATOM      6  N2  <0> d  11     -24.313  13.515 -12.626  0.00  0.00    -0.294 N 
ATOM      7  O1  <0> d  11     -23.549  16.668 -11.584  0.00  0.00    -0.266 OA
ENDROOT
BRANCH   5   8
ATOM      8  C4  <0> d  11     -25.351  15.615 -13.643  0.00  0.00     0.115 C 
ATOM      9  C3  <0> d  11     -24.660  15.744 -15.004  0.00  0.00     0.055 C 
ATOM     10  C2  <0> d  11     -25.609  16.432 -15.988  0.00  0.00     0.236 C 
ATOM     11  N3  <0> d  11     -26.834  15.615 -16.126  0.00  0.00    -0.075 N 
ATOM     12  C1  <0> d  11     -27.716  16.199 -17.157  0.00  0.00     0.269 C 
ATOM     13  C6  <0> d  11     -27.546  15.544 -14.833  0.00  0.00     0.236 C 
ATOM     14  H26 <0> d  11     -26.569  14.664 -16.412  0.00  0.00     0.279 HD
ATOM     15  C5  <0> d  11     -26.655  14.829 -13.814  0.00  0.00     0.055 C 
ENDBRANCH   5   8
BRANCH   3  16
ATOM     16  C10 <0> d  11     -22.930  11.914 -11.215  0.00  0.00    -0.007 A 
ATOM     17  C15 <0> d  11     -23.521  11.277 -10.122  0.00  0.00     0.014 A 
ATOM     18  C14 <0> d  11     -23.082  10.028  -9.736  0.00  0.00     0.001 A 
ATOM     19  C13 <0> d  11     -22.057   9.407 -10.427  0.00  0.00     0.000 A 
ATOM     20  C12 <0> d  11     -21.467  10.032 -11.512  0.00  0.00     0.001 A 
ATOM     21  C11 <0> d  11     -21.901  11.279 -11.912  0.00  0.00     0.014 A 
ENDBRANCH   3  16
BRANCH   2  22
ATOM     22  C16 <0> d  11     -21.996  14.624  -9.990  0.00  0.00     0.085 C 
BRANCH  22  23
ATOM     23  C17 <0> d  11     -20.628  14.870 -10.575  0.00  0.00    -0.054 A 
ATOM     24  C22 <0> d  11     -20.171  16.164 -10.741  0.00  0.00     0.007 A 
ATOM     25  C21 <0> d  11     -18.916  16.390 -11.276  0.00  0.00     0.001 A 
ATOM     26  C20 <0> d  11     -18.120  15.322 -11.643  0.00  0.00     0.000 A 
ATOM     27  C19 <0> d  11     -18.575  14.028 -11.473  0.00  0.00     0.001 A 
ATOM     28  C18 <0> d  11     -19.831  13.802 -10.942  0.00  0.00     0.007 A 
ENDBRANCH  22  23
ENDBRANCH   2  22
TORSDOF 4
ENDMDL
MODEL 3
REMARK VINA RESULT:    -6.589      4.922      6.382
REMARK INTER + INTRA:          -9.684
REMARK INTER:                  -8.229
REMARK INTRA:                  -1.455
REMARK UNBOUND:                -1.555
REMARK  4 active torsions:
REMARK  status: ('A' for Active; 'I' for Inactive)
REMARK    1  A    between atoms: C4_4  and  N1_25 
REMARK    2  A    between atoms: C8_8  and  C16_16 
REMARK    3  A    between atoms: C9_9  and  C10_10 
REMARK    4  A    between atoms: C16_16  and  C17_17 
ROOT
ATOM      1  C7  <0> d  11     -19.148  13.215 -10.858  0.00  0.00     0.271 A 
ATOM      2  C8  <0> d  11     -19.084  12.357  -9.741  0.00  0.00     0.044 A 
ATOM      3  C9  <0> d  11     -18.820  13.118  -8.641  0.00  0.00     0.070 A 
ATOM      4  H1  <0> d  11     -18.521  15.187  -8.473  0.00  0.00     0.187 HD
ATOM      5  N1  <0> d  11     -18.920  14.472 -10.430  0.00  0.00    -0.252 N 
ATOM      6  N2  <0> d  11     -18.708  14.428  -9.046  0.00  0.00    -0.294 N 
ATOM      7  O1  <0> d  11     -19.372  12.878 -12.007  0.00  0.00    -0.266 OA
ENDROOT
BRANCH   5   8
ATOM      8  C4  <0> d  11     -18.895  15.675 -11.267  0.00  0.00     0.115 C 
ATOM      9  C3  <0> d  11     -20.091  16.565 -10.918  0.00  0.00     0.055 C 
ATOM     10  C2  <0> d  11     -20.026  17.847 -11.751  0.00  0.00     0.236 C 
ATOM     11  N3  <0> d  11     -18.768  18.559 -11.439  0.00  0.00    -0.075 N 
ATOM     12  C1  <0> d  11     -18.734  19.856 -12.145  0.00  0.00     0.269 C 
ATOM     13  C6  <0> d  11     -17.607  17.736 -11.840  0.00  0.00     0.236 C 
ATOM     14  H26 <0> d  11     -18.722  18.728 -10.427  0.00  0.00     0.279 HD
ATOM     15  C5  <0> d  11     -17.599  16.450 -11.009  0.00  0.00     0.055 C 
ENDBRANCH   5   8
BRANCH   3  16
ATOM     16  C10 <0> d  11     -18.675  12.621  -7.257  0.00  0.00    -0.007 A 
ATOM     17  C15 <0> d  11     -19.758  12.670  -6.377  0.00  0.00     0.014 A 
ATOM     18  C14 <0> d  11     -19.616  12.205  -5.087  0.00  0.00     0.001 A 
ATOM     19  C13 <0> d  11     -18.403  11.691  -4.663  0.00  0.00     0.000 A 
ATOM     20  C12 <0> d  11     -17.326  11.638  -5.529  0.00  0.00     0.001 A 
ATOM     21  C11 <0> d  11     -17.457  12.095  -6.825  0.00  0.00     0.014 A 
ENDBRANCH   3  16
BRANCH   2  22
ATOM     22  C16 <0> d  11     -19.279  10.863  -9.759  0.00  0.00     0.085 C 
BRANCH  22  23
ATOM     23  C17 <0> d  11     -20.735  10.549  -9.992  0.00  0.00    -0.054 A 
ATOM     24  C22 <0> d  11     -21.128   9.918 -11.157  0.00  0.00     0.007 A 
ATOM     25  C21 <0> d  11     -22.463   9.630 -11.371  0.00  0.00     0.001 A 
ATOM     26  C20 <0> d  11     -23.404   9.972 -10.419  0.00  0.00     0.000 A 
ATOM     27  C19 <0> d  11     -23.011  10.600  -9.252  0.00  0.00     0.001 A 
ATOM     28  C18 <0> d  11     -21.676  10.892  -9.040  0.00  0.00     0.007 A 
ENDBRANCH  22  23
ENDBRANCH   2  22
TORSDOF 4
ENDMDL
MODEL 4
REMARK VINA RESULT:    -6.566      2.957      6.547
REMARK INTER + INTRA:          -9.657
REMARK INTER:                  -8.059
REMARK INTRA:                  -1.598
REMARK UNBOUND:                -1.555
REMARK  4 active torsions:
REMARK  status: ('A' for Active; 'I' for Inactive)
REMARK    1  A    between atoms: C4_4  and  N1_25 
REMARK    2  A    between atoms: C8_8  and  C16_16 
REMARK    3  A    between atoms: C9_9  and  C10_10 
REMARK    4  A    between atoms: C16_16  and  C17_17 
ROOT
ATOM      1  C7  <0> d  11     -19.494  14.128 -11.814  0.00  0.00     0.271 A 
ATOM      2  C8  <0> d  11     -20.773  13.609 -12.104  0.00  0.00     0.044 A 
ATOM      3  C9  <0> d  11     -21.695  14.564 -11.796  0.00  0.00     0.070 A 
ATOM      4  H1  <0> d  11     -21.428  16.492 -11.013  0.00  0.00     0.187 HD
ATOM      5  N1  <0> d  11     -19.652  15.377 -11.334  0.00  0.00    -0.252 N 
ATOM      6  N2  <0> d  11     -21.023  15.664 -11.312  0.00  0.00    -0.294 N 
ATOM      7  O1  <0> d  11     -18.434  13.549 -11.972  0.00  0.00    -0.266 OA
ENDROOT
BRANCH   5   8
ATOM      8  C4  <0> d  11     -18.577  16.277 -10.907  0.00  0.00     0.115 C 
ATOM      9  C3  <0> d  11     -19.035  17.730 -11.064  0.00  0.00     0.055 C 
ATOM     10  C2  <0> d  11     -17.933  18.664 -10.559  0.00  0.00     0.236 C 
ATOM     11  N3  <0> d  11     -17.674  18.375  -9.133  0.00  0.00    -0.075 N 
ATOM     12  C1  <0> d  11     -16.694  19.340  -8.592  0.00  0.00     0.269 C 
ATOM     13  C6  <0> d  11     -17.162  16.996  -8.979  0.00  0.00     0.236 C 
ATOM     14  H26 <0> d  11     -18.554  18.463  -8.610  0.00  0.00     0.279 HD
ATOM     15  C5  <0> d  11     -18.242  16.012  -9.436  0.00  0.00     0.055 C 
ENDBRANCH   5   8
BRANCH   3  16
ATOM     16  C10 <0> d  11     -23.159  14.440 -11.951  0.00  0.00    -0.007 A 
ATOM     17  C15 <0> d  11     -23.927  13.879 -10.928  0.00  0.00     0.014 A 
ATOM     18  C14 <0> d  11     -25.293  13.766 -11.080  0.00  0.00     0.001 A 
ATOM     19  C13 <0> d  11     -25.903  14.206 -12.242  0.00  0.00     0.000 A 
ATOM     20  C12 <0> d  11     -25.148  14.763 -13.259  0.00  0.00     0.001 A 
ATOM     21  C11 <0> d  11     -23.780  14.887 -13.118  0.00  0.00     0.014 A 
ENDBRANCH   3  16
BRANCH   2  22
ATOM     22  C16 <0> d  11     -21.068  12.240 -12.662  0.00  0.00     0.085 C 
BRANCH  22  23
ATOM     23  C17 <0> d  11     -21.426  11.306 -11.534  0.00  0.00    -0.054 A 
ATOM     24  C22 <0> d  11     -22.619  10.608 -11.567  0.00  0.00     0.007 A 
ATOM     25  C21 <0> d  11     -22.947   9.751 -10.533  0.00  0.00     0.001 A 
ATOM     26  C20 <0> d  11     -22.082   9.591  -9.468  0.00  0.00     0.000 A 
ATOM     27  C19 <0> d  11     -20.887  10.286  -9.436  0.00  0.00     0.001 A 
ATOM     28  C18 <0> d  11     -20.561  11.146 -10.468  0.00  0.00     0.007 A 
ENDBRANCH  22  23
ENDBRANCH   2  22
TORSDOF 4
ENDMDL
MODEL 5
REMARK VINA RESULT:    -6.358      4.485      8.665
REMARK INTER + INTRA:          -9.399
REMARK INTER:                  -7.844
REMARK INTRA:                  -1.555
REMARK UNBOUND:                -1.555
REMARK  4 active torsions:
REMARK  status: ('A' for Active; 'I' for Inactive)
REMARK    1  A    between atoms: C4_4  and  N1_25 
REMARK    2  A    between atoms: C8_8  and  C16_16 
REMARK    3  A    between atoms: C9_9  and  C10_10 
REMARK    4  A    between atoms: C16_16  and  C17_17 
ROOT
ATOM      1  C7  <0> d  11     -18.820  13.702  -9.283  0.00  0.00     0.271 A 
ATOM      2  C8  <0> d  11     -19.658  13.043 -10.206  0.00  0.00     0.044 A 
ATOM      3  C9  <0> d  11     -20.343  12.074  -9.536  0.00  0.00     0.070 A 
ATOM      4  H1  <0> d  11     -20.268  11.526  -7.512  0.00  0.00     0.187 HD
ATOM      5  N1  <0> d  11     -18.999  13.129  -8.077  0.00  0.00    -0.252 N 
ATOM      6  N2  <0> d  11     -19.946  12.106  -8.219  0.00  0.00    -0.294 N 
ATOM      7  O1  <0> d  11     -18.068  14.627  -9.534  0.00  0.00    -0.266 OA
ENDROOT
BRANCH   5   8
ATOM      8  C4  <0> d  11     -18.321  13.509  -6.835  0.00  0.00     0.115 C 
ATOM      9  C3  <0> d  11     -19.344  13.587  -5.698  0.00  0.00     0.055 C 
ATOM     10  C2  <0> d  11     -18.621  13.923  -4.391  0.00  0.00     0.236 C 
ATOM     11  N3  <0> d  11     -17.633  12.862  -4.102  0.00  0.00    -0.075 N 
ATOM     12  C1  <0> d  11     -17.002  13.105  -2.788  0.00  0.00     0.269 C 
ATOM     13  C6  <0> d  11     -16.600  12.827  -5.159  0.00  0.00     0.236 C 
ATOM     14  H26 <0> d  11     -18.115  11.955  -4.078  0.00  0.00     0.279 HD
ATOM     15  C5  <0> d  11     -17.263  12.458  -6.488  0.00  0.00     0.055 C 
ENDBRANCH   5   8
BRANCH   3  16
ATOM     16  C10 <0> d  11     -21.335  11.148 -10.121  0.00  0.00    -0.007 A 
ATOM     17  C15 <0> d  11     -22.679  11.239  -9.755  0.00  0.00     0.014 A 
ATOM     18  C14 <0> d  11     -23.600  10.372 -10.306  0.00  0.00     0.001 A 
ATOM     19  C13 <0> d  11     -23.194   9.414 -11.218  0.00  0.00     0.000 A 
ATOM     20  C12 <0> d  11     -21.864   9.319 -11.586  0.00  0.00     0.001 A 
ATOM     21  C11 <0> d  11     -20.933  10.184 -11.047  0.00  0.00     0.014 A 
ENDBRANCH   3  16
BRANCH   2  22
ATOM     22  C16 <0> d  11     -19.779  13.358 -11.675  0.00  0.00     0.085 C 
BRANCH  22  23
ATOM     23  C17 <0> d  11     -20.983  14.236 -11.902  0.00  0.00    -0.054 A 
ATOM     24  C22 <0> d  11     -22.152  13.692 -12.401  0.00  0.00     0.007 A 
ATOM     25  C21 <0> d  11     -23.256  14.498 -12.608  0.00  0.00     0.001 A 
ATOM     26  C20 <0> d  11     -23.191  15.847 -12.317  0.00  0.00     0.000 A 
ATOM     27  C19 <0> d  11     -22.023  16.390 -11.814  0.00  0.00     0.001 A 
ATOM     28  C18 <0> d  11     -20.918  15.586 -11.611  0.00  0.00     0.007 A 
ENDBRANCH  22  23
ENDBRANCH   2  22
TORSDOF 4
ENDMDL
