REMARK INTER + INTRA:          -7.545
REMARK INTER:                  -6.908
REMARK INTRA:                  -0.638
REMARK UNBOUND:                -0.638
REMARK  3 active torsions:
REMARK  status: ('A' for Active; 'I' for Inactive)
REMARK    1  A    between atoms: C4_4  and  C7_7 
REMARK    2  A    between atoms: C14_14  and  C16_16 
REMARK    3  A    between atoms: C16_16  and  C17_17 
ROOT
ATOM      1  C7  <0> d  11     -19.111  13.846 -10.422  0.00  0.00     0.090 A 
ATOM      2  C8  <0> d  11     -18.808  14.747 -11.396  0.00  0.00     0.093 A 
ATOM      3  C9  <0> d  11     -18.084  15.916 -11.064  0.00  0.00     0.187 A 
ATOM      4  C10 <0> d  11     -17.684  16.088  -9.653  0.00  0.00     0.048 A 
ATOM      5  C11 <0> d  11     -16.966  17.206  -9.234  0.00  0.00     0.018 A 
ATOM      6  C12 <0> d  11     -16.611  17.329  -7.908  0.00  0.00     0.002 A 
ATOM      7  C13 <0> d  11     -16.968  16.348  -6.995  0.00  0.00     0.010 A 
ATOM      8  C14 <0> d  11     -17.677  15.237  -7.397  0.00  0.00    -0.013 A 
ATOM      9  C15 <0> d  11     -18.045  15.093  -8.730  0.00  0.00     0.097 A 
ATOM     10  O1  <0> d  11     -17.799  16.748 -11.909  0.00  0.00    -0.287 OA
ATOM     11  O2  <0> d  11     -18.741  14.015  -9.144  0.00  0.00    -0.308 OA
ENDROOT
BRANCH   1  12
ATOM     12  C4  <0> d  11     -19.871  12.635 -10.788  0.00  0.00    -0.002 A 
ATOM     13  C3  <0> d  11     -19.805  11.495  -9.983  0.00  0.00     0.014 A 
ATOM     14  C2  <0> d  11     -20.518  10.367 -10.331  0.00  0.00     0.001 A 
ATOM     15  C1  <0> d  11     -21.299  10.362 -11.473  0.00  0.00     0.000 A 
ATOM     16  C6  <0> d  11     -21.369  11.488 -12.275  0.00  0.00     0.001 A 
ATOM     17  C5  <0> d  11     -20.665  12.625 -11.937  0.00  0.00     0.014 A 
ENDBRANCH   1  12
BRANCH   8  18
ATOM     18  C16 <0> d  11     -18.056  14.179  -6.393  0.00  0.00     0.154 C 
BRANCH  18  19
ATOM     19  C17 <0> d  11     -16.934  13.180  -6.269  0.00  0.00     0.177 C 
ATOM     20  O3  <0> d  11     -16.086  13.326  -5.422  0.00  0.00    -0.648 OA
ATOM     21  O4  <0> d  11     -16.879  12.127  -7.100  0.00  0.00    -0.648 OA
ENDBRANCH  18  19
ENDBRANCH   8  18
TORSDOF 3
ENDMDL
