REMARK INTER + INTRA:          -5.532
REMARK INTER:                  -5.421
REMARK INTRA:                  -0.111
REMARK UNBOUND:                -0.101
REMARK  3 active torsions:
REMARK  status: ('A' for Active; 'I' for Inactive)
REMARK    1  A    between atoms: C3_3  and  S1_15 
REMARK    2  A    between atoms: C6_6  and  C7_7 
REMARK    3  A    between atoms: S1_15  and  N1_10 
ROOT
ATOM      1  C1  <0> d  11     -19.784  16.538 -11.325  0.00  0.00     0.020 A 
ATOM      2  C2  <0> d  11     -20.775  15.597 -11.514  0.00  0.00     0.026 A 
ATOM      3  C3  <0> d  11     -20.442  14.278 -11.763  0.00  0.00     0.079 A 
ATOM      4  C4  <0> d  11     -19.114  13.893 -11.828  0.00  0.00     0.026 A 
ATOM      5  C5  <0> d  11     -18.113  14.824 -11.646  0.00  0.00     0.020 A 
ATOM      6  C6  <0> d  11     -18.443  16.157 -11.395  0.00  0.00     0.040 A 
ENDROOT
BRANCH   3   7
ATOM      7  S1  <0> d  11     -21.714  13.081 -11.997  0.00  0.00     0.256 S 
ATOM      8  O2  <0> d  11     -21.158  12.048 -12.798  0.00  0.00    -0.201 OA
ATOM      9  O3  <0> d  11     -22.279  12.832 -10.717  0.00  0.00    -0.201 OA
BRANCH   7  10
ATOM     10  N1  <0> d  11     -22.899  13.798 -12.905  0.00  0.00    -0.324 N 
ATOM     11  H5  <0> d  11     -23.137  14.725 -12.747  0.00  0.00     0.169 HD
ATOM     12  H6  <0> d  11     -23.354  13.291 -13.596  0.00  0.00     0.169 HD
ENDBRANCH   7  10
ENDBRANCH   3   7
BRANCH   6  13
ATOM     13  C7  <0> d  11     -17.375  17.160 -11.199  0.00  0.00     0.209 C 
ATOM     14  O1  <0> d  11     -16.269  16.967 -11.661  0.00  0.00    -0.644 OA
ATOM     15  O4  <0> d  11     -17.630  18.290 -10.511  0.00  0.00    -0.644 OA
ENDBRANCH   6  13
TORSDOF 3
ENDMDL
