REMARK INTER + INTRA:          -7.917
REMARK INTER:                  -7.325
REMARK INTRA:                  -0.592
REMARK UNBOUND:                -0.638
REMARK  3 active torsions:
REMARK  status: ('A' for Active; 'I' for Inactive)
REMARK    1  A    between atoms: C4_4  and  C7_7 
REMARK    2  A    between atoms: C14_14  and  C16_16 
REMARK    3  A    between atoms: C16_16  and  C17_17 
ROOT
ATOM      1  C7  <0> d  11     -23.698  14.243 -12.488  0.00  0.00     0.090 A 
ATOM      2  C8  <0> d  11     -24.825  13.654 -12.005  0.00  0.00     0.093 A 
ATOM      3  C9  <0> d  11     -24.738  12.384 -11.388  0.00  0.00     0.187 A 
ATOM      4  C10 <0> d  11     -23.401  11.764 -11.296  0.00  0.00     0.048 A 
ATOM      5  C11 <0> d  11     -23.220  10.517 -10.702  0.00  0.00     0.018 A 
ATOM      6  C12 <0> d  11     -21.955   9.973 -10.637  0.00  0.00     0.002 A 
ATOM      7  C13 <0> d  11     -20.870  10.660 -11.158  0.00  0.00     0.010 A 
ATOM      8  C14 <0> d  11     -21.036  11.895 -11.747  0.00  0.00    -0.013 A 
ATOM      9  C15 <0> d  11     -22.303  12.462 -11.824  0.00  0.00     0.097 A 
ATOM     10  O1  <0> d  11     -25.728  11.824 -10.947  0.00  0.00    -0.287 OA
ATOM     11  O2  <0> d  11     -22.488  13.669 -12.398  0.00  0.00    -0.308 OA
ENDROOT
BRANCH   1  12
ATOM     12  C4  <0> d  11     -23.809  15.566 -13.133  0.00  0.00    -0.002 A 
ATOM     13  C3  <0> d  11     -23.190  16.680 -12.560  0.00  0.00     0.014 A 
ATOM     14  C2  <0> d  11     -23.298  17.913 -13.168  0.00  0.00     0.001 A 
ATOM     15  C1  <0> d  11     -24.016  18.050 -14.343  0.00  0.00     0.000 A 
ATOM     16  C6  <0> d  11     -24.632  16.951 -14.915  0.00  0.00     0.001 A 
ATOM     17  C5  <0> d  11     -24.528  15.710 -14.322  0.00  0.00     0.014 A 
ENDBRANCH   1  12
BRANCH   8  18
ATOM     18  C16 <0> d  11     -19.846  12.631 -12.308  0.00  0.00     0.154 C 
BRANCH  18  19
ATOM     19  C17 <0> d  11     -19.152  13.381 -11.201  0.00  0.00     0.177 C 
ATOM     20  O3  <0> d  11     -18.208  12.884 -10.635  0.00  0.00    -0.648 OA
ATOM     21  O4  <0> d  11     -19.582  14.601 -10.845  0.00  0.00    -0.648 OA
ENDBRANCH  18  19
ENDBRANCH   8  18
TORSDOF 3
ENDMDL
