REMARK INTER + INTRA:          -5.504
REMARK INTER:                  -5.392
REMARK INTRA:                  -0.112
REMARK UNBOUND:                -0.101
REMARK  3 active torsions:
REMARK  status: ('A' for Active; 'I' for Inactive)
REMARK    1  A    between atoms: C3_3  and  S1_15 
REMARK    2  A    between atoms: C6_6  and  C7_7 
REMARK    3  A    between atoms: S1_15  and  N1_10 
ROOT
ATOM      1  C1  <0> d  11     -19.840  16.602 -11.409  0.00  0.00     0.020 A 
ATOM      2  C2  <0> d  11     -20.808  15.635 -11.586  0.00  0.00     0.026 A 
ATOM      3  C3  <0> d  11     -20.445  14.314 -11.774  0.00  0.00     0.079 A 
ATOM      4  C4  <0> d  11     -19.109  13.952 -11.788  0.00  0.00     0.026 A 
ATOM      5  C5  <0> d  11     -18.130  14.908 -11.617  0.00  0.00     0.020 A 
ATOM      6  C6  <0> d  11     -18.490  16.244 -11.428  0.00  0.00     0.040 A 
ENDROOT
BRANCH   3   7
ATOM      7  S1  <0> d  11     -21.689  13.085 -11.993  0.00  0.00     0.256 S 
ATOM      8  O2  <0> d  11     -21.113  12.063 -12.795  0.00  0.00    -0.201 OA
ATOM      9  O3  <0> d  11     -22.236  12.826 -10.707  0.00  0.00    -0.201 OA
BRANCH   7  10
ATOM     10  N1  <0> d  11     -22.898  13.769 -12.893  0.00  0.00    -0.324 N 
ATOM     11  H5  <0> d  11     -22.679  14.370 -13.622  0.00  0.00     0.169 HD
ATOM     12  H6  <0> d  11     -23.825  13.567 -12.693  0.00  0.00     0.169 HD
ENDBRANCH   7  10
ENDBRANCH   3   7
BRANCH   6  13
ATOM     13  C7  <0> d  11     -17.446  17.274 -11.244  0.00  0.00     0.209 C 
ATOM     14  O1  <0> d  11     -16.300  17.043 -11.573  0.00  0.00    -0.644 OA
ATOM     15  O4  <0> d  11     -17.767  18.470 -10.716  0.00  0.00    -0.644 OA
ENDBRANCH   6  13
TORSDOF 3
ENDMDL
