REMARK INTER + INTRA:          -5.598
REMARK INTER:                  -5.394
REMARK INTRA:                  -0.204
REMARK UNBOUND:                -0.131
REMARK  1 active torsions:
REMARK  status: ('A' for Active; 'I' for Inactive)
REMARK    1  A    between atoms: C7_7  and  C4_4 
ROOT
ATOM      1  C1  LG1 d5015      26.538  23.864  31.132  0.00  0.00    -0.004 C 
ATOM      2  C2  LG1 d5015      26.061  25.185  30.518  0.00  0.00    -0.001 C 
ATOM      3  C3  LG1 d5015      26.020  25.151  28.945  0.00  0.00    -0.030 C 
ATOM      4  C4  LG1 d5015      25.427  26.578  28.696  0.00  0.00     0.063 C 
ATOM      5  C5  LG1 d5015      24.350  26.772  29.822  0.00  0.00     0.013 C 
ATOM      6  C6  LG1 d5015      24.658  25.697  30.926  0.00  0.00     0.006 C 
ATOM      7  C9  LG1 d5015      25.043  24.065  28.370  0.00  0.00     0.016 C 
ATOM      8  C10 LG1 d5015      27.481  24.939  28.488  0.00  0.00     0.011 C 
ATOM      9  C11 LG1 d5015      28.068  23.627  29.078  0.00  0.00     0.007 C 
ATOM     10  C12 LG1 d5015      27.994  23.595  30.626  0.00  0.00     0.002 C 
ATOM     11  C13 LG1 d5015      28.607  22.267  31.206  0.00  0.00    -0.016 C 
ATOM     12  C14 LG1 d5015      28.480  22.299  32.783  0.00  0.00    -0.068 C 
ATOM     13  C15 LG1 d5015      29.468  21.996  33.605  0.00  0.00     0.053 C 
ATOM     14  C16 LG1 d5015      30.738  21.482  33.116  0.00  0.00     0.149 C 
ATOM     15  C17 LG1 d5015      30.921  21.186  31.630  0.00  0.00     0.084 C 
ATOM     16  C18 LG1 d5015      30.103  22.204  30.797  0.00  0.00     0.022 C 
ATOM     17  O2  LG1 d5015      31.656  21.211  33.910  0.00  0.00    -0.293 OA
ATOM     18  C19 LG1 d5015      27.145  22.737  33.376  0.00  0.00     0.035 C 
ATOM     19  C20 LG1 d5015      26.575  23.986  32.677  0.00  0.00     0.010 C 
ATOM     20  C21 LG1 d5015      27.832  20.981  30.724  0.00  0.00     0.020 C 
ENDROOT
BRANCH   4  21
ATOM     21  C7  LG1 d5015      24.926  26.830  27.264  0.00  0.00     0.128 C 
ATOM     22  O1  LG1 d5015      25.712  26.870  26.342  0.00  0.00    -0.298 OA
ATOM     23  C8  LG1 d5015      23.469  27.016  27.019  0.00  0.00     0.091 C 
ENDBRANCH   4  21
TORSDOF 1
ENDMDL
