REMARK INTER + INTRA:          -6.666
REMARK INTER:                  -6.484
REMARK INTRA:                  -0.182
REMARK UNBOUND:                -0.141
REMARK  1 active torsions:
REMARK  status: ('A' for Active; 'I' for Inactive)
REMARK    1  A    between atoms: C7_7  and  C4_4 
ROOT
ATOM      1  C1  LG1 d5015      28.193  20.851  29.406  0.00  0.00    -0.004 C 
ATOM      2  C2  LG1 d5015      27.527  19.728  28.603  0.00  0.00    -0.001 C 
ATOM      3  C3  LG1 d5015      25.970  19.657  28.821  0.00  0.00    -0.030 C 
ATOM      4  C4  LG1 d5015      25.646  18.500  27.818  0.00  0.00     0.063 C 
ATOM      5  C5  LG1 d5015      26.573  18.764  26.580  0.00  0.00     0.013 C 
ATOM      6  C6  LG1 d5015      27.697  19.751  27.064  0.00  0.00     0.006 C 
ATOM      7  C9  LG1 d5015      25.219  20.963  28.381  0.00  0.00     0.016 C 
ATOM      8  C10 LG1 d5015      25.767  19.329  30.317  0.00  0.00     0.011 C 
ATOM      9  C11 LG1 d5015      26.427  20.405  31.223  0.00  0.00     0.007 C 
ATOM     10  C12 LG1 d5015      27.939  20.575  30.925  0.00  0.00     0.002 C 
ATOM     11  C13 LG1 d5015      28.594  21.656  31.861  0.00  0.00    -0.016 C 
ATOM     12  C14 LG1 d5015      30.127  21.786  31.487  0.00  0.00    -0.068 C 
ATOM     13  C15 LG1 d5015      31.101  21.796  32.378  0.00  0.00     0.053 C 
ATOM     14  C16 LG1 d5015      30.828  21.814  33.807  0.00  0.00     0.149 C 
ATOM     15  C17 LG1 d5015      29.391  21.920  34.310  0.00  0.00     0.084 C 
ATOM     16  C18 LG1 d5015      28.446  21.180  33.331  0.00  0.00     0.022 C 
ATOM     17  O2  LG1 d5015      31.763  21.818  34.628  0.00  0.00    -0.293 OA
ATOM     18  C19 LG1 d5015      30.489  21.870  30.008  0.00  0.00     0.035 C 
ATOM     19  C20 LG1 d5015      29.723  20.838  29.158  0.00  0.00     0.010 C 
ATOM     20  C21 LG1 d5015      27.967  23.089  31.662  0.00  0.00     0.020 C 
ENDROOT
BRANCH   4  21
ATOM     21  C7  LG1 d5015      24.154  18.327  27.490  0.00  0.00     0.128 C 
ATOM     22  O1  LG1 d5015      23.401  17.843  28.308  0.00  0.00    -0.298 OA
ATOM     23  C8  LG1 d5015      23.639  18.766  26.163  0.00  0.00     0.091 C 
ENDBRANCH   4  21
TORSDOF 1
ENDMDL
