REMARK INTER + INTRA:          -5.291
REMARK INTER:                  -5.189
REMARK INTRA:                  -0.101
REMARK UNBOUND:                -0.101
REMARK  1 active torsions:
REMARK  status: ('A' for Active; 'I' for Inactive)
REMARK    1  A    between atoms: C7_7  and  C4_4 
ROOT
ATOM      1  C1  LG1 d5015      28.214  20.843  30.380  0.00  0.00    -0.004 C 
ATOM      2  C2  LG1 d5015      29.238  21.827  30.957  0.00  0.00    -0.001 C 
ATOM      3  C3  LG1 d5015      28.867  22.321  32.405  0.00  0.00    -0.030 C 
ATOM      4  C4  LG1 d5015      30.131  23.201  32.682  0.00  0.00     0.063 C 
ATOM      5  C5  LG1 d5015      31.329  22.396  32.067  0.00  0.00     0.013 C 
ATOM      6  C6  LG1 d5015      30.703  21.343  31.082  0.00  0.00     0.006 C 
ATOM      7  C9  LG1 d5015      28.789  21.160  33.458  0.00  0.00     0.016 C 
ATOM      8  C10 LG1 d5015      27.531  23.084  32.262  0.00  0.00     0.011 C 
ATOM      9  C11 LG1 d5015      26.424  22.173  31.663  0.00  0.00     0.007 C 
ATOM     10  C12 LG1 d5015      26.835  21.576  30.291  0.00  0.00     0.002 C 
ATOM     11  C13 LG1 d5015      25.697  20.670  29.692  0.00  0.00    -0.016 C 
ATOM     12  C14 LG1 d5015      26.194  20.085  28.308  0.00  0.00    -0.068 C 
ATOM     13  C15 LG1 d5015      25.467  20.089  27.206  0.00  0.00     0.053 C 
ATOM     14  C16 LG1 d5015      24.080  20.529  27.210  0.00  0.00     0.149 C 
ATOM     15  C17 LG1 d5015      23.400  20.907  28.522  0.00  0.00     0.084 C 
ATOM     16  C18 LG1 d5015      24.439  21.552  29.474  0.00  0.00     0.022 C 
ATOM     17  O2  LG1 d5015      23.417  20.530  26.157  0.00  0.00    -0.293 OA
ATOM     18  C19 LG1 d5015      27.608  19.516  28.248  0.00  0.00     0.035 C 
ATOM     19  C20 LG1 d5015      28.636  20.426  28.948  0.00  0.00     0.010 C 
ATOM     20  C21 LG1 d5015      25.368  19.428  30.606  0.00  0.00     0.020 C 
ENDROOT
BRANCH   4  21
ATOM     21  C7  LG1 d5015      30.315  23.624  34.149  0.00  0.00     0.128 C 
ATOM     22  O1  LG1 d5015      29.398  24.138  34.754  0.00  0.00    -0.298 OA
ATOM     23  C8  LG1 d5015      31.623  23.391  34.822  0.00  0.00     0.091 C 
ENDBRANCH   4  21
TORSDOF 1
ENDMDL
