REMARK INTER + INTRA:          -4.307
REMARK INTER:                  -4.155
REMARK INTRA:                  -0.152
REMARK UNBOUND:                -0.141
REMARK  1 active torsions:
REMARK  status: ('A' for Active; 'I' for Inactive)
REMARK    1  A    between atoms: C7_7  and  C4_4 
ROOT
ATOM      1  C1  LG1 d5015      25.594  23.642  29.736  0.00  0.00    -0.004 C 
ATOM      2  C2  LG1 d5015      25.823  25.116  29.387  0.00  0.00    -0.001 C 
ATOM      3  C3  LG1 d5015      27.193  25.368  28.654  0.00  0.00    -0.030 C 
ATOM      4  C4  LG1 d5015      27.039  26.903  28.391  0.00  0.00     0.063 C 
ATOM      5  C5  LG1 d5015      25.532  27.100  28.004  0.00  0.00     0.013 C 
ATOM      6  C6  LG1 d5015      24.774  25.809  28.483  0.00  0.00     0.006 C 
ATOM      7  C9  LG1 d5015      27.317  24.608  27.286  0.00  0.00     0.016 C 
ATOM      8  C10 LG1 d5015      28.292  24.962  29.661  0.00  0.00     0.011 C 
ATOM      9  C11 LG1 d5015      28.136  23.479  30.096  0.00  0.00     0.007 C 
ATOM     10  C12 LG1 d5015      26.738  23.191  30.703  0.00  0.00     0.002 C 
ATOM     11  C13 LG1 d5015      26.602  21.689  31.153  0.00  0.00    -0.016 C 
ATOM     12  C14 LG1 d5015      25.150  21.468  31.741  0.00  0.00    -0.068 C 
ATOM     13  C15 LG1 d5015      24.907  20.842  32.879  0.00  0.00     0.053 C 
ATOM     14  C16 LG1 d5015      25.967  20.187  33.630  0.00  0.00     0.149 C 
ATOM     15  C17 LG1 d5015      27.382  20.127  33.064  0.00  0.00     0.084 C 
ATOM     16  C18 LG1 d5015      27.666  21.412  32.248  0.00  0.00     0.022 C 
ATOM     17  O2  LG1 d5015      25.714  19.609  34.703  0.00  0.00    -0.293 OA
ATOM     18  C19 LG1 d5015      23.974  22.043  30.959  0.00  0.00     0.035 C 
ATOM     19  C20 LG1 d5015      24.241  23.482  30.475  0.00  0.00     0.010 C 
ATOM     20  C21 LG1 d5015      26.751  20.681  29.949  0.00  0.00     0.020 C 
ENDROOT
BRANCH   4  21
ATOM     21  C7  LG1 d5015      28.051  27.493  27.395  0.00  0.00     0.128 C 
ATOM     22  O1  LG1 d5015      27.699  27.795  26.274  0.00  0.00    -0.298 OA
ATOM     23  C8  LG1 d5015      29.463  27.700  27.819  0.00  0.00     0.091 C 
ENDBRANCH   4  21
TORSDOF 1
ENDMDL
