REMARK INTER + INTRA:          -5.707
REMARK INTER:                  -5.652
REMARK INTRA:                  -0.056
REMARK UNBOUND:                -0.131
REMARK  1 active torsions:
REMARK  status: ('A' for Active; 'I' for Inactive)
REMARK    1  A    between atoms: C7_7  and  C4_4 
ROOT
ATOM      1  C1  LG1 d5015      26.683  20.519  31.434  0.00  0.00    -0.004 C 
ATOM      2  C2  LG1 d5015      27.671  20.808  32.570  0.00  0.00    -0.001 C 
ATOM      3  C3  LG1 d5015      28.416  22.184  32.401  0.00  0.00    -0.030 C 
ATOM      4  C4  LG1 d5015      29.236  22.171  33.734  0.00  0.00     0.063 C 
ATOM      5  C5  LG1 d5015      28.260  21.572  34.806  0.00  0.00     0.013 C 
ATOM      6  C6  LG1 d5015      27.110  20.852  34.012  0.00  0.00     0.006 C 
ATOM      7  C9  LG1 d5015      27.448  23.419  32.389  0.00  0.00     0.016 C 
ATOM      8  C10 LG1 d5015      29.241  22.062  31.100  0.00  0.00     0.011 C 
ATOM      9  C11 LG1 d5015      28.327  21.748  29.883  0.00  0.00     0.007 C 
ATOM     10  C12 LG1 d5015      27.490  20.460  30.095  0.00  0.00     0.002 C 
ATOM     11  C13 LG1 d5015      26.583  20.149  28.848  0.00  0.00    -0.016 C 
ATOM     12  C14 LG1 d5015      25.749  18.837  29.145  0.00  0.00    -0.068 C 
ATOM     13  C15 LG1 d5015      25.629  17.836  28.292  0.00  0.00     0.053 C 
ATOM     14  C16 LG1 d5015      26.161  17.916  26.941  0.00  0.00     0.149 C 
ATOM     15  C17 LG1 d5015      26.793  19.213  26.444  0.00  0.00     0.084 C 
ATOM     16  C18 LG1 d5015      27.506  19.924  27.620  0.00  0.00     0.022 C 
ATOM     17  O2  LG1 d5015      26.041  16.957  26.158  0.00  0.00    -0.293 OA
ATOM     18  C19 LG1 d5015      25.078  18.719  30.509  0.00  0.00     0.035 C 
ATOM     19  C20 LG1 d5015      26.013  19.140  31.660  0.00  0.00     0.010 C 
ATOM     20  C21 LG1 d5015      25.530  21.289  28.565  0.00  0.00     0.020 C 
ENDROOT
BRANCH   4  21
ATOM     21  C7  LG1 d5015      29.876  23.517  34.113  0.00  0.00     0.128 C 
ATOM     22  O1  LG1 d5015      29.256  24.321  34.777  0.00  0.00    -0.298 OA
ATOM     23  C8  LG1 d5015      31.263  23.822  33.667  0.00  0.00     0.091 C 
ENDBRANCH   4  21
TORSDOF 1
ENDMDL
