MODEL 1
REMARK VINA RESULT:    -6.164      0.000      0.000
REMARK INTER + INTRA:          -6.666
REMARK INTER:                  -6.484
REMARK INTRA:                  -0.182
REMARK UNBOUND:                -0.141
REMARK  1 active torsions:
REMARK  status: ('A' for Active; 'I' for Inactive)
REMARK    1  A    between atoms: C7_7  and  C4_4 
ROOT
ATOM      1  C1  LG1 d5015      28.193  20.851  29.406  0.00  0.00    -0.004 C 
ATOM      2  C2  LG1 d5015      27.527  19.728  28.603  0.00  0.00    -0.001 C 
ATOM      3  C3  LG1 d5015      25.970  19.657  28.821  0.00  0.00    -0.030 C 
ATOM      4  C4  LG1 d5015      25.646  18.500  27.818  0.00  0.00     0.063 C 
ATOM      5  C5  LG1 d5015      26.573  18.764  26.580  0.00  0.00     0.013 C 
ATOM      6  C6  LG1 d5015      27.697  19.751  27.064  0.00  0.00     0.006 C 
ATOM      7  C9  LG1 d5015      25.219  20.963  28.381  0.00  0.00     0.016 C 
ATOM      8  C10 LG1 d5015      25.767  19.329  30.317  0.00  0.00     0.011 C 
ATOM      9  C11 LG1 d5015      26.427  20.405  31.223  0.00  0.00     0.007 C 
ATOM     10  C12 LG1 d5015      27.939  20.575  30.925  0.00  0.00     0.002 C 
ATOM     11  C13 LG1 d5015      28.594  21.656  31.861  0.00  0.00    -0.016 C 
ATOM     12  C14 LG1 d5015      30.127  21.786  31.487  0.00  0.00    -0.068 C 
ATOM     13  C15 LG1 d5015      31.101  21.796  32.378  0.00  0.00     0.053 C 
ATOM     14  C16 LG1 d5015      30.828  21.814  33.807  0.00  0.00     0.149 C 
ATOM     15  C17 LG1 d5015      29.391  21.920  34.310  0.00  0.00     0.084 C 
ATOM     16  C18 LG1 d5015      28.446  21.180  33.331  0.00  0.00     0.022 C 
ATOM     17  O2  LG1 d5015      31.763  21.818  34.628  0.00  0.00    -0.293 OA
ATOM     18  C19 LG1 d5015      30.489  21.870  30.008  0.00  0.00     0.035 C 
ATOM     19  C20 LG1 d5015      29.723  20.838  29.158  0.00  0.00     0.010 C 
ATOM     20  C21 LG1 d5015      27.967  23.089  31.662  0.00  0.00     0.020 C 
ENDROOT
BRANCH   4  21
ATOM     21  C7  LG1 d5015      24.154  18.327  27.490  0.00  0.00     0.128 C 
ATOM     22  O1  LG1 d5015      23.401  17.843  28.308  0.00  0.00    -0.298 OA
ATOM     23  C8  LG1 d5015      23.639  18.766  26.163  0.00  0.00     0.091 C 
ENDBRANCH   4  21
TORSDOF 1
ENDMDL
MODEL 2
REMARK VINA RESULT:    -5.277      1.632      7.130
REMARK INTER + INTRA:          -5.727
REMARK INTER:                  -5.672
REMARK INTRA:                  -0.056
REMARK UNBOUND:                -0.141
REMARK  1 active torsions:
REMARK  status: ('A' for Active; 'I' for Inactive)
REMARK    1  A    between atoms: C7_7  and  C4_4 
ROOT
ATOM      1  C1  LG1 d5015      26.676  20.511  31.433  0.00  0.00    -0.004 C 
ATOM      2  C2  LG1 d5015      27.655  20.807  32.574  0.00  0.00    -0.001 C 
ATOM      3  C3  LG1 d5015      28.392  22.188  32.408  0.00  0.00    -0.030 C 
ATOM      4  C4  LG1 d5015      29.204  22.181  33.746  0.00  0.00     0.063 C 
ATOM      5  C5  LG1 d5015      28.224  21.579  34.812  0.00  0.00     0.013 C 
ATOM      6  C6  LG1 d5015      27.084  20.850  34.012  0.00  0.00     0.006 C 
ATOM      7  C9  LG1 d5015      27.417  23.417  32.387  0.00  0.00     0.016 C 
ATOM      8  C10 LG1 d5015      29.226  22.069  31.112  0.00  0.00     0.011 C 
ATOM      9  C11 LG1 d5015      28.322  21.747  29.890  0.00  0.00     0.007 C 
ATOM     10  C12 LG1 d5015      27.491  20.454  30.099  0.00  0.00     0.002 C 
ATOM     11  C13 LG1 d5015      26.594  20.136  28.846  0.00  0.00    -0.016 C 
ATOM     12  C14 LG1 d5015      25.767  18.819  29.140  0.00  0.00    -0.068 C 
ATOM     13  C15 LG1 d5015      25.658  17.816  28.288  0.00  0.00     0.053 C 
ATOM     14  C16 LG1 d5015      26.199  17.898  26.940  0.00  0.00     0.149 C 
ATOM     15  C17 LG1 d5015      26.826  19.198  26.445  0.00  0.00     0.084 C 
ATOM     16  C18 LG1 d5015      27.527  19.915  27.625  0.00  0.00     0.022 C 
ATOM     17  O2  LG1 d5015      26.089  16.937  26.158  0.00  0.00    -0.293 OA
ATOM     18  C19 LG1 d5015      25.088  18.699  30.500  0.00  0.00     0.035 C 
ATOM     19  C20 LG1 d5015      26.012  19.128  31.656  0.00  0.00     0.010 C 
ATOM     20  C21 LG1 d5015      25.537  21.269  28.555  0.00  0.00     0.020 C 
ENDROOT
BRANCH   4  21
ATOM     21  C7  LG1 d5015      29.833  23.532  34.127  0.00  0.00     0.128 C 
ATOM     22  O1  LG1 d5015      29.205  24.333  34.787  0.00  0.00    -0.298 OA
ATOM     23  C8  LG1 d5015      31.220  23.846  33.688  0.00  0.00     0.091 C 
ENDBRANCH   4  21
TORSDOF 1
ENDMDL
MODEL 3
REMARK VINA RESULT:    -4.273      3.220      4.655
REMARK INTER + INTRA:          -4.664
REMARK INTER:                  -4.518
REMARK INTRA:                  -0.146
REMARK UNBOUND:                -0.141
REMARK  1 active torsions:
REMARK  status: ('A' for Active; 'I' for Inactive)
REMARK    1  A    between atoms: C7_7  and  C4_4 
ROOT
ATOM      1  C1  LG1 d5015      26.897  20.592  31.973  0.00  0.00    -0.004 C 
ATOM      2  C2  LG1 d5015      27.688  20.441  30.669  0.00  0.00    -0.001 C 
ATOM      3  C3  LG1 d5015      26.764  20.316  29.401  0.00  0.00    -0.030 C 
ATOM      4  C4  LG1 d5015      27.878  20.269  28.303  0.00  0.00     0.063 C 
ATOM      5  C5  LG1 d5015      28.960  21.300  28.778  0.00  0.00     0.013 C 
ATOM      6  C6  LG1 d5015      28.687  21.566  30.303  0.00  0.00     0.006 C 
ATOM      7  C9  LG1 d5015      25.848  21.570  29.171  0.00  0.00     0.016 C 
ATOM      8  C10 LG1 d5015      25.953  19.015  29.595  0.00  0.00     0.011 C 
ATOM      9  C11 LG1 d5015      25.125  19.060  30.909  0.00  0.00     0.007 C 
ATOM     10  C12 LG1 d5015      26.015  19.313  32.154  0.00  0.00     0.002 C 
ATOM     11  C13 LG1 d5015      25.163  19.340  33.477  0.00  0.00    -0.016 C 
ATOM     12  C14 LG1 d5015      26.133  19.620  34.696  0.00  0.00    -0.068 C 
ATOM     13  C15 LG1 d5015      26.115  18.929  35.821  0.00  0.00     0.053 C 
ATOM     14  C16 LG1 d5015      25.102  17.918  36.079  0.00  0.00     0.149 C 
ATOM     15  C17 LG1 d5015      23.967  17.700  35.083  0.00  0.00     0.084 C 
ATOM     16  C18 LG1 d5015      24.486  17.954  33.646  0.00  0.00     0.022 C 
ATOM     17  O2  LG1 d5015      25.110  17.275  37.144  0.00  0.00    -0.293 OA
ATOM     18  C19 LG1 d5015      27.164  20.733  34.538  0.00  0.00     0.035 C 
ATOM     19  C20 LG1 d5015      27.875  20.683  33.172  0.00  0.00     0.010 C 
ATOM     20  C21 LG1 d5015      24.094  20.499  33.485  0.00  0.00     0.020 C 
ENDROOT
BRANCH   4  21
ATOM     21  C7  LG1 d5015      27.376  20.467  26.863  0.00  0.00     0.128 C 
ATOM     22  O1  LG1 d5015      27.530  21.532  26.305  0.00  0.00    -0.298 OA
ATOM     23  C8  LG1 d5015      26.708  19.339  26.157  0.00  0.00     0.091 C 
ENDBRANCH   4  21
TORSDOF 1
ENDMDL
MODEL 4
REMARK VINA RESULT:    -3.974      4.067      5.669
REMARK INTER + INTRA:          -4.348
REMARK INTER:                  -4.207
REMARK INTRA:                  -0.141
REMARK UNBOUND:                -0.141
REMARK  1 active torsions:
REMARK  status: ('A' for Active; 'I' for Inactive)
REMARK    1  A    between atoms: C7_7  and  C4_4 
ROOT
ATOM      1  C1  LG1 d5015      26.686  22.998  28.622  0.00  0.00    -0.004 C 
ATOM      2  C2  LG1 d5015      26.876  21.670  29.364  0.00  0.00    -0.001 C 
ATOM      3  C3  LG1 d5015      26.522  21.766  30.895  0.00  0.00    -0.030 C 
ATOM      4  C4  LG1 d5015      26.743  20.265  31.280  0.00  0.00     0.063 C 
ATOM      5  C5  LG1 d5015      26.174  19.447  30.068  0.00  0.00     0.013 C 
ATOM      6  C6  LG1 d5015      26.068  20.449  28.862  0.00  0.00     0.006 C 
ATOM      7  C9  LG1 d5015      25.029  22.167  31.165  0.00  0.00     0.016 C 
ATOM      8  C10 LG1 d5015      27.527  22.772  31.499  0.00  0.00     0.011 C 
ATOM      9  C11 LG1 d5015      27.428  24.155  30.797  0.00  0.00     0.007 C 
ATOM     10  C12 LG1 d5015      27.647  24.052  29.265  0.00  0.00     0.002 C 
ATOM     11  C13 LG1 d5015      27.559  25.462  28.573  0.00  0.00    -0.016 C 
ATOM     12  C14 LG1 d5015      27.774  25.274  27.016  0.00  0.00    -0.068 C 
ATOM     13  C15 LG1 d5015      28.587  26.022  26.292  0.00  0.00     0.053 C 
ATOM     14  C16 LG1 d5015      29.267  27.177  26.858  0.00  0.00     0.149 C 
ATOM     15  C17 LG1 d5015      28.976  27.610  28.292  0.00  0.00     0.084 C 
ATOM     16  C18 LG1 d5015      28.681  26.361  29.158  0.00  0.00     0.022 C 
ATOM     17  O2  LG1 d5015      30.033  27.863  26.157  0.00  0.00    -0.293 OA
ATOM     18  C19 LG1 d5015      27.018  24.141  26.330  0.00  0.00     0.035 C 
ATOM     19  C20 LG1 d5015      27.078  22.827  27.132  0.00  0.00     0.010 C 
ATOM     20  C21 LG1 d5015      26.144  26.135  28.747  0.00  0.00     0.020 C 
ENDROOT
BRANCH   4  21
ATOM     21  C7  LG1 d5015      26.188  19.863  32.657  0.00  0.00     0.128 C 
ATOM     22  O1  LG1 d5015      25.131  19.276  32.740  0.00  0.00    -0.298 OA
ATOM     23  C8  LG1 d5015      26.963  20.192  33.885  0.00  0.00     0.091 C 
ENDBRANCH   4  21
TORSDOF 1
ENDMDL
MODEL 5
REMARK VINA RESULT:    -3.935      4.350      6.361
REMARK INTER + INTRA:          -4.307
REMARK INTER:                  -4.155
REMARK INTRA:                  -0.152
REMARK UNBOUND:                -0.141
REMARK  1 active torsions:
REMARK  status: ('A' for Active; 'I' for Inactive)
REMARK    1  A    between atoms: C7_7  and  C4_4 
ROOT
ATOM      1  C1  LG1 d5015      25.594  23.642  29.736  0.00  0.00    -0.004 C 
ATOM      2  C2  LG1 d5015      25.823  25.116  29.387  0.00  0.00    -0.001 C 
ATOM      3  C3  LG1 d5015      27.193  25.368  28.654  0.00  0.00    -0.030 C 
ATOM      4  C4  LG1 d5015      27.039  26.903  28.391  0.00  0.00     0.063 C 
ATOM      5  C5  LG1 d5015      25.532  27.100  28.004  0.00  0.00     0.013 C 
ATOM      6  C6  LG1 d5015      24.774  25.809  28.483  0.00  0.00     0.006 C 
ATOM      7  C9  LG1 d5015      27.317  24.608  27.286  0.00  0.00     0.016 C 
ATOM      8  C10 LG1 d5015      28.292  24.962  29.661  0.00  0.00     0.011 C 
ATOM      9  C11 LG1 d5015      28.136  23.479  30.096  0.00  0.00     0.007 C 
ATOM     10  C12 LG1 d5015      26.738  23.191  30.703  0.00  0.00     0.002 C 
ATOM     11  C13 LG1 d5015      26.602  21.689  31.153  0.00  0.00    -0.016 C 
ATOM     12  C14 LG1 d5015      25.150  21.468  31.741  0.00  0.00    -0.068 C 
ATOM     13  C15 LG1 d5015      24.907  20.842  32.879  0.00  0.00     0.053 C 
ATOM     14  C16 LG1 d5015      25.967  20.187  33.630  0.00  0.00     0.149 C 
ATOM     15  C17 LG1 d5015      27.382  20.127  33.064  0.00  0.00     0.084 C 
ATOM     16  C18 LG1 d5015      27.666  21.412  32.248  0.00  0.00     0.022 C 
ATOM     17  O2  LG1 d5015      25.714  19.609  34.703  0.00  0.00    -0.293 OA
ATOM     18  C19 LG1 d5015      23.974  22.043  30.959  0.00  0.00     0.035 C 
ATOM     19  C20 LG1 d5015      24.241  23.482  30.475  0.00  0.00     0.010 C 
ATOM     20  C21 LG1 d5015      26.751  20.681  29.949  0.00  0.00     0.020 C 
ENDROOT
BRANCH   4  21
ATOM     21  C7  LG1 d5015      28.051  27.493  27.395  0.00  0.00     0.128 C 
ATOM     22  O1  LG1 d5015      27.699  27.795  26.274  0.00  0.00    -0.298 OA
ATOM     23  C8  LG1 d5015      29.463  27.700  27.819  0.00  0.00     0.091 C 
ENDBRANCH   4  21
TORSDOF 1
ENDMDL
