REMARK INTER + INTRA:          -5.714
REMARK INTER:                  -5.655
REMARK INTRA:                  -0.060
REMARK UNBOUND:                -0.152
REMARK  1 active torsions:
REMARK  status: ('A' for Active; 'I' for Inactive)
REMARK    1  A    between atoms: C7_7  and  C4_4 
ROOT
ATOM      1  C1  LG1 d5015      26.681  20.521  31.434  0.00  0.00    -0.004 C 
ATOM      2  C2  LG1 d5015      27.663  20.807  32.575  0.00  0.00    -0.001 C 
ATOM      3  C3  LG1 d5015      28.412  22.182  32.409  0.00  0.00    -0.030 C 
ATOM      4  C4  LG1 d5015      29.225  22.168  33.747  0.00  0.00     0.063 C 
ATOM      5  C5  LG1 d5015      28.240  21.573  34.814  0.00  0.00     0.013 C 
ATOM      6  C6  LG1 d5015      27.093  20.855  34.014  0.00  0.00     0.006 C 
ATOM      7  C9  LG1 d5015      27.448  23.419  32.390  0.00  0.00     0.016 C 
ATOM      8  C10 LG1 d5015      29.245  22.056  31.114  0.00  0.00     0.011 C 
ATOM      9  C11 LG1 d5015      28.337  21.744  29.892  0.00  0.00     0.007 C 
ATOM     10  C12 LG1 d5015      27.495  20.458  30.100  0.00  0.00     0.002 C 
ATOM     11  C13 LG1 d5015      26.595  20.148  28.847  0.00  0.00    -0.016 C 
ATOM     12  C14 LG1 d5015      25.756  18.839  29.141  0.00  0.00    -0.068 C 
ATOM     13  C15 LG1 d5015      25.638  17.837  28.288  0.00  0.00     0.053 C 
ATOM     14  C16 LG1 d5015      26.179  17.915  26.940  0.00  0.00     0.149 C 
ATOM     15  C17 LG1 d5015      26.817  19.209  26.445  0.00  0.00     0.084 C 
ATOM     16  C18 LG1 d5015      27.525  19.919  27.626  0.00  0.00     0.022 C 
ATOM     17  O2  LG1 d5015      26.060  16.955  26.157  0.00  0.00    -0.293 OA
ATOM     18  C19 LG1 d5015      25.076  18.724  30.501  0.00  0.00     0.035 C 
ATOM     19  C20 LG1 d5015      26.005  19.143  31.657  0.00  0.00     0.010 C 
ATOM     20  C21 LG1 d5015      25.547  21.290  28.557  0.00  0.00     0.020 C 
ENDROOT
BRANCH   4  21
ATOM     21  C7  LG1 d5015      29.865  23.512  34.129  0.00  0.00     0.128 C 
ATOM     22  O1  LG1 d5015      29.246  24.316  34.793  0.00  0.00    -0.298 OA
ATOM     23  C8  LG1 d5015      31.254  23.816  33.684  0.00  0.00     0.091 C 
ENDBRANCH   4  21
TORSDOF 1
ENDMDL
