REMARK INTER + INTRA:          -4.348
REMARK INTER:                  -4.207
REMARK INTRA:                  -0.141
REMARK UNBOUND:                -0.141
REMARK  1 active torsions:
REMARK  status: ('A' for Active; 'I' for Inactive)
REMARK    1  A    between atoms: C7_7  and  C4_4 
ROOT
ATOM      1  C1  LG1 d5015      26.686  22.998  28.622  0.00  0.00    -0.004 C 
ATOM      2  C2  LG1 d5015      26.876  21.670  29.364  0.00  0.00    -0.001 C 
ATOM      3  C3  LG1 d5015      26.522  21.766  30.895  0.00  0.00    -0.030 C 
ATOM      4  C4  LG1 d5015      26.743  20.265  31.280  0.00  0.00     0.063 C 
ATOM      5  C5  LG1 d5015      26.174  19.447  30.068  0.00  0.00     0.013 C 
ATOM      6  C6  LG1 d5015      26.068  20.449  28.862  0.00  0.00     0.006 C 
ATOM      7  C9  LG1 d5015      25.029  22.167  31.165  0.00  0.00     0.016 C 
ATOM      8  C10 LG1 d5015      27.527  22.772  31.499  0.00  0.00     0.011 C 
ATOM      9  C11 LG1 d5015      27.428  24.155  30.797  0.00  0.00     0.007 C 
ATOM     10  C12 LG1 d5015      27.647  24.052  29.265  0.00  0.00     0.002 C 
ATOM     11  C13 LG1 d5015      27.559  25.462  28.573  0.00  0.00    -0.016 C 
ATOM     12  C14 LG1 d5015      27.774  25.274  27.016  0.00  0.00    -0.068 C 
ATOM     13  C15 LG1 d5015      28.587  26.022  26.292  0.00  0.00     0.053 C 
ATOM     14  C16 LG1 d5015      29.267  27.177  26.858  0.00  0.00     0.149 C 
ATOM     15  C17 LG1 d5015      28.976  27.610  28.292  0.00  0.00     0.084 C 
ATOM     16  C18 LG1 d5015      28.681  26.361  29.158  0.00  0.00     0.022 C 
ATOM     17  O2  LG1 d5015      30.033  27.863  26.157  0.00  0.00    -0.293 OA
ATOM     18  C19 LG1 d5015      27.018  24.141  26.330  0.00  0.00     0.035 C 
ATOM     19  C20 LG1 d5015      27.078  22.827  27.132  0.00  0.00     0.010 C 
ATOM     20  C21 LG1 d5015      26.144  26.135  28.747  0.00  0.00     0.020 C 
ENDROOT
BRANCH   4  21
ATOM     21  C7  LG1 d5015      26.188  19.863  32.657  0.00  0.00     0.128 C 
ATOM     22  O1  LG1 d5015      25.131  19.276  32.740  0.00  0.00    -0.298 OA
ATOM     23  C8  LG1 d5015      26.963  20.192  33.885  0.00  0.00     0.091 C 
ENDBRANCH   4  21
TORSDOF 1
ENDMDL
