REMARK INTER + INTRA:          -5.386
REMARK INTER:                  -5.231
REMARK INTRA:                  -0.156
REMARK UNBOUND:                -0.037
REMARK  1 active torsions:
REMARK  status: ('A' for Active; 'I' for Inactive)
REMARK    1  A    between atoms: C7_7  and  C4_4 
ROOT
ATOM      1  C1  LG1 d5015      26.484  22.443  31.188  0.00  0.00    -0.004 C 
ATOM      2  C2  LG1 d5015      25.927  22.643  29.775  0.00  0.00    -0.001 C 
ATOM      3  C3  LG1 d5015      25.973  21.331  28.905  0.00  0.00    -0.030 C 
ATOM      4  C4  LG1 d5015      25.273  21.881  27.617  0.00  0.00     0.063 C 
ATOM      5  C5  LG1 d5015      24.126  22.813  28.145  0.00  0.00     0.013 C 
ATOM      6  C6  LG1 d5015      24.466  23.137  29.644  0.00  0.00     0.006 C 
ATOM      7  C9  LG1 d5015      25.124  20.156  29.507  0.00  0.00     0.016 C 
ATOM      8  C10 LG1 d5015      27.468  20.972  28.759  0.00  0.00     0.011 C 
ATOM      9  C11 LG1 d5015      28.134  20.766  30.148  0.00  0.00     0.007 C 
ATOM     10  C12 LG1 d5015      27.982  22.010  31.061  0.00  0.00     0.002 C 
ATOM     11  C13 LG1 d5015      28.676  21.790  32.456  0.00  0.00    -0.016 C 
ATOM     12  C14 LG1 d5015      28.463  23.088  33.336  0.00  0.00    -0.068 C 
ATOM     13  C15 LG1 d5015      29.429  23.682  34.013  0.00  0.00     0.053 C 
ATOM     14  C16 LG1 d5015      30.762  23.106  34.104  0.00  0.00     0.149 C 
ATOM     15  C17 LG1 d5015      31.048  21.739  33.490  0.00  0.00     0.084 C 
ATOM     16  C18 LG1 d5015      30.191  21.557  32.213  0.00  0.00     0.022 C 
ATOM     17  O2  LG1 d5015      31.657  23.688  34.742  0.00  0.00    -0.293 OA
ATOM     18  C19 LG1 d5015      27.066  23.699  33.370  0.00  0.00     0.035 C 
ATOM     19  C20 LG1 d5015      26.429  23.781  31.969  0.00  0.00     0.010 C 
ATOM     20  C21 LG1 d5015      28.040  20.596  33.267  0.00  0.00     0.020 C 
ENDROOT
BRANCH   4  21
ATOM     21  C7  LG1 d5015      24.828  20.804  26.614  0.00  0.00     0.128 C 
ATOM     22  O1  LG1 d5015      25.634  20.012  26.173  0.00  0.00    -0.298 OA
ATOM     23  C8  LG1 d5015      23.400  20.736  26.194  0.00  0.00     0.091 C 
ENDBRANCH   4  21
TORSDOF 1
ENDMDL
