REMARK INTER + INTRA:          -4.348
REMARK INTER:                  -4.218
REMARK INTRA:                  -0.131
REMARK UNBOUND:                -0.131
REMARK  1 active torsions:
REMARK  status: ('A' for Active; 'I' for Inactive)
REMARK    1  A    between atoms: C7_7  and  C4_4 
ROOT
ATOM      1  C1  LG1 d5015      26.580  23.080  28.468  0.00  0.00    -0.004 C 
ATOM      2  C2  LG1 d5015      26.701  21.745  29.211  0.00  0.00    -0.001 C 
ATOM      3  C3  LG1 d5015      26.291  21.846  30.727  0.00  0.00    -0.030 C 
ATOM      4  C4  LG1 d5015      26.452  20.339  31.114  0.00  0.00     0.063 C 
ATOM      5  C5  LG1 d5015      25.907  19.541  29.878  0.00  0.00     0.013 C 
ATOM      6  C6  LG1 d5015      25.878  20.549  28.672  0.00  0.00     0.006 C 
ATOM      7  C9  LG1 d5015      24.801  22.290  30.941  0.00  0.00     0.016 C 
ATOM      8  C10 LG1 d5015      27.300  22.820  31.375  0.00  0.00     0.011 C 
ATOM      9  C11 LG1 d5015      27.269  24.208  30.675  0.00  0.00     0.007 C 
ATOM     10  C12 LG1 d5015      27.545  24.103  29.153  0.00  0.00     0.002 C 
ATOM     11  C13 LG1 d5015      27.526  25.518  28.464  0.00  0.00    -0.016 C 
ATOM     12  C14 LG1 d5015      27.796  25.328  26.916  0.00  0.00    -0.068 C 
ATOM     13  C15 LG1 d5015      28.658  26.055  26.228  0.00  0.00     0.053 C 
ATOM     14  C16 LG1 d5015      29.349  27.187  26.824  0.00  0.00     0.149 C 
ATOM     15  C17 LG1 d5015      29.015  27.624  28.248  0.00  0.00     0.084 C 
ATOM     16  C18 LG1 d5015      28.650  26.381  29.096  0.00  0.00     0.022 C 
ATOM     17  O2  LG1 d5015      30.162  27.852  26.157  0.00  0.00    -0.293 OA
ATOM     18  C19 LG1 d5015      27.035  24.220  26.195  0.00  0.00     0.035 C 
ATOM     19  C20 LG1 d5015      27.025  22.903  26.994  0.00  0.00     0.010 C 
ATOM     20  C21 LG1 d5015      26.125  26.231  28.586  0.00  0.00     0.020 C 
ENDROOT
BRANCH   4  21
ATOM     21  C7  LG1 d5015      25.832  19.948  32.467  0.00  0.00     0.128 C 
ATOM     22  O1  LG1 d5015      24.731  19.442  32.509  0.00  0.00    -0.298 OA
ATOM     23  C8  LG1 d5015      26.598  20.188  33.721  0.00  0.00     0.091 C 
ENDBRANCH   4  21
TORSDOF 1
ENDMDL
