REMARK INTER + INTRA:          -5.595
REMARK INTER:                  -5.390
REMARK INTRA:                  -0.205
REMARK UNBOUND:                -0.037
REMARK  1 active torsions:
REMARK  status: ('A' for Active; 'I' for Inactive)
REMARK    1  A    between atoms: C7_7  and  C4_4 
ROOT
ATOM      1  C1  LG1 d5015      26.538  23.757  31.127  0.00  0.00    -0.004 C 
ATOM      2  C2  LG1 d5015      26.038  25.077  30.531  0.00  0.00    -0.001 C 
ATOM      3  C3  LG1 d5015      26.054  25.085  28.956  0.00  0.00    -0.030 C 
ATOM      4  C4  LG1 d5015      25.421  26.497  28.724  0.00  0.00     0.063 C 
ATOM      5  C5  LG1 d5015      24.299  26.624  29.814  0.00  0.00     0.013 C 
ATOM      6  C6  LG1 d5015      24.604  25.530  30.900  0.00  0.00     0.006 C 
ATOM      7  C9  LG1 d5015      25.136  23.983  28.318  0.00  0.00     0.016 C 
ATOM      8  C10 LG1 d5015      27.536  24.934  28.547  0.00  0.00     0.011 C 
ATOM      9  C11 LG1 d5015      28.147  23.627  29.123  0.00  0.00     0.007 C 
ATOM     10  C12 LG1 d5015      28.019  23.550  30.667  0.00  0.00     0.002 C 
ATOM     11  C13 LG1 d5015      28.657  22.228  31.234  0.00  0.00    -0.016 C 
ATOM     12  C14 LG1 d5015      28.473  22.213  32.806  0.00  0.00    -0.068 C 
ATOM     13  C15 LG1 d5015      29.441  21.921  33.655  0.00  0.00     0.053 C 
ATOM     14  C16 LG1 d5015      30.744  21.463  33.198  0.00  0.00     0.149 C 
ATOM     15  C17 LG1 d5015      30.990  21.214  31.713  0.00  0.00     0.084 C 
ATOM     16  C18 LG1 d5015      30.168  22.226  30.877  0.00  0.00     0.022 C 
ATOM     17  O2  LG1 d5015      31.643  21.201  34.018  0.00  0.00    -0.293 OA
ATOM     18  C19 LG1 d5015      27.103  22.590  33.361  0.00  0.00     0.035 C 
ATOM     19  C20 LG1 d5015      26.517  23.838  32.675  0.00  0.00     0.010 C 
ATOM     20  C21 LG1 d5015      27.944  20.930  30.691  0.00  0.00     0.020 C 
ENDROOT
BRANCH   4  21
ATOM     21  C7  LG1 d5015      24.962  26.771  27.281  0.00  0.00     0.128 C 
ATOM     22  O1  LG1 d5015      25.779  26.865  26.390  0.00  0.00    -0.298 OA
ATOM     23  C8  LG1 d5015      23.508  26.910  26.988  0.00  0.00     0.091 C 
ENDBRANCH   4  21
TORSDOF 1
ENDMDL
