REMARK INTER + INTRA:          -5.599
REMARK INTER:                  -5.397
REMARK INTRA:                  -0.203
REMARK UNBOUND:                -0.101
REMARK  1 active torsions:
REMARK  status: ('A' for Active; 'I' for Inactive)
REMARK    1  A    between atoms: C7_7  and  C4_4 
ROOT
ATOM      1  C1  LG1 d5015      26.552  23.784  31.140  0.00  0.00    -0.004 C 
ATOM      2  C2  LG1 d5015      26.059  25.105  30.539  0.00  0.00    -0.001 C 
ATOM      3  C3  LG1 d5015      26.060  25.102  28.965  0.00  0.00    -0.030 C 
ATOM      4  C4  LG1 d5015      25.440  26.520  28.729  0.00  0.00     0.063 C 
ATOM      5  C5  LG1 d5015      24.331  26.667  29.829  0.00  0.00     0.013 C 
ATOM      6  C6  LG1 d5015      24.635  25.577  30.920  0.00  0.00     0.006 C 
ATOM      7  C9  LG1 d5015      25.124  24.006  28.344  0.00  0.00     0.016 C 
ATOM      8  C10 LG1 d5015      27.536  24.933  28.543  0.00  0.00     0.011 C 
ATOM      9  C11 LG1 d5015      28.139  23.622  29.122  0.00  0.00     0.007 C 
ATOM     10  C12 LG1 d5015      28.026  23.558  30.667  0.00  0.00     0.002 C 
ATOM     11  C13 LG1 d5015      28.655  22.233  31.237  0.00  0.00    -0.016 C 
ATOM     12  C14 LG1 d5015      28.486  22.231  32.810  0.00  0.00    -0.068 C 
ATOM     13  C15 LG1 d5015      29.460  21.935  33.652  0.00  0.00     0.053 C 
ATOM     14  C16 LG1 d5015      30.753  21.459  33.186  0.00  0.00     0.149 C 
ATOM     15  C17 LG1 d5015      30.981  21.197  31.700  0.00  0.00     0.084 C 
ATOM     16  C18 LG1 d5015      30.162  22.212  30.865  0.00  0.00     0.022 C 
ATOM     17  O2  LG1 d5015      31.657  21.193  33.998  0.00  0.00    -0.293 OA
ATOM     18  C19 LG1 d5015      27.126  22.626  33.377  0.00  0.00     0.035 C 
ATOM     19  C20 LG1 d5015      26.546  23.876  32.687  0.00  0.00     0.010 C 
ATOM     20  C21 LG1 d5015      27.922  20.940  30.710  0.00  0.00     0.020 C 
ENDROOT
BRANCH   4  21
ATOM     21  C7  LG1 d5015      24.970  26.789  27.289  0.00  0.00     0.128 C 
ATOM     22  O1  LG1 d5015      25.779  26.877  26.391  0.00  0.00    -0.298 OA
ATOM     23  C8  LG1 d5015      23.515  26.931  27.007  0.00  0.00     0.091 C 
ENDBRANCH   4  21
TORSDOF 1
ENDMDL
