MODEL 1
REMARK VINA RESULT:    -5.367      0.000      0.000
REMARK INTER + INTRA:          -5.717
REMARK INTER:                  -5.658
REMARK INTRA:                  -0.060
REMARK UNBOUND:                -0.037
REMARK  1 active torsions:
REMARK  status: ('A' for Active; 'I' for Inactive)
REMARK    1  A    between atoms: C7_7  and  C4_4 
ROOT
ATOM      1  C1  LG1 d5015      26.682  20.522  31.432  0.00  0.00    -0.004 C 
ATOM      2  C2  LG1 d5015      27.663  20.810  32.574  0.00  0.00    -0.001 C 
ATOM      3  C3  LG1 d5015      28.413  22.184  32.407  0.00  0.00    -0.030 C 
ATOM      4  C4  LG1 d5015      29.224  22.171  33.745  0.00  0.00     0.063 C 
ATOM      5  C5  LG1 d5015      28.239  21.576  34.812  0.00  0.00     0.013 C 
ATOM      6  C6  LG1 d5015      27.093  20.858  34.012  0.00  0.00     0.006 C 
ATOM      7  C9  LG1 d5015      27.448  23.421  32.387  0.00  0.00     0.016 C 
ATOM      8  C10 LG1 d5015      29.245  22.058  31.112  0.00  0.00     0.011 C 
ATOM      9  C11 LG1 d5015      28.338  21.744  29.890  0.00  0.00     0.007 C 
ATOM     10  C12 LG1 d5015      27.497  20.459  30.098  0.00  0.00     0.002 C 
ATOM     11  C13 LG1 d5015      26.597  20.148  28.846  0.00  0.00    -0.016 C 
ATOM     12  C14 LG1 d5015      25.758  18.839  29.139  0.00  0.00    -0.068 C 
ATOM     13  C15 LG1 d5015      25.640  17.837  28.287  0.00  0.00     0.053 C 
ATOM     14  C16 LG1 d5015      26.181  17.914  26.939  0.00  0.00     0.149 C 
ATOM     15  C17 LG1 d5015      26.820  19.208  26.444  0.00  0.00     0.084 C 
ATOM     16  C18 LG1 d5015      27.527  19.919  27.625  0.00  0.00     0.022 C 
ATOM     17  O2  LG1 d5015      26.064  16.954  26.157  0.00  0.00    -0.293 OA
ATOM     18  C19 LG1 d5015      25.078  18.725  30.499  0.00  0.00     0.035 C 
ATOM     19  C20 LG1 d5015      26.006  19.145  31.655  0.00  0.00     0.010 C 
ATOM     20  C21 LG1 d5015      25.549  21.290  28.554  0.00  0.00     0.020 C 
ENDROOT
BRANCH   4  21
ATOM     21  C7  LG1 d5015      29.865  23.516  34.127  0.00  0.00     0.128 C 
ATOM     22  O1  LG1 d5015      29.246  24.319  34.791  0.00  0.00    -0.298 OA
ATOM     23  C8  LG1 d5015      31.253  23.820  33.681  0.00  0.00     0.091 C 
ENDBRANCH   4  21
TORSDOF 1
ENDMDL
MODEL 2
REMARK VINA RESULT:    -5.251      3.668      6.547
REMARK INTER + INTRA:          -5.595
REMARK INTER:                  -5.390
REMARK INTRA:                  -0.205
REMARK UNBOUND:                -0.037
REMARK  1 active torsions:
REMARK  status: ('A' for Active; 'I' for Inactive)
REMARK    1  A    between atoms: C7_7  and  C4_4 
ROOT
ATOM      1  C1  LG1 d5015      26.538  23.757  31.127  0.00  0.00    -0.004 C 
ATOM      2  C2  LG1 d5015      26.038  25.077  30.531  0.00  0.00    -0.001 C 
ATOM      3  C3  LG1 d5015      26.054  25.085  28.956  0.00  0.00    -0.030 C 
ATOM      4  C4  LG1 d5015      25.421  26.497  28.724  0.00  0.00     0.063 C 
ATOM      5  C5  LG1 d5015      24.299  26.624  29.814  0.00  0.00     0.013 C 
ATOM      6  C6  LG1 d5015      24.604  25.530  30.900  0.00  0.00     0.006 C 
ATOM      7  C9  LG1 d5015      25.136  23.983  28.318  0.00  0.00     0.016 C 
ATOM      8  C10 LG1 d5015      27.536  24.934  28.547  0.00  0.00     0.011 C 
ATOM      9  C11 LG1 d5015      28.147  23.627  29.123  0.00  0.00     0.007 C 
ATOM     10  C12 LG1 d5015      28.019  23.550  30.667  0.00  0.00     0.002 C 
ATOM     11  C13 LG1 d5015      28.657  22.228  31.234  0.00  0.00    -0.016 C 
ATOM     12  C14 LG1 d5015      28.473  22.213  32.806  0.00  0.00    -0.068 C 
ATOM     13  C15 LG1 d5015      29.441  21.921  33.655  0.00  0.00     0.053 C 
ATOM     14  C16 LG1 d5015      30.744  21.463  33.198  0.00  0.00     0.149 C 
ATOM     15  C17 LG1 d5015      30.990  21.214  31.713  0.00  0.00     0.084 C 
ATOM     16  C18 LG1 d5015      30.168  22.226  30.877  0.00  0.00     0.022 C 
ATOM     17  O2  LG1 d5015      31.643  21.201  34.018  0.00  0.00    -0.293 OA
ATOM     18  C19 LG1 d5015      27.103  22.590  33.361  0.00  0.00     0.035 C 
ATOM     19  C20 LG1 d5015      26.517  23.838  32.675  0.00  0.00     0.010 C 
ATOM     20  C21 LG1 d5015      27.944  20.930  30.691  0.00  0.00     0.020 C 
ENDROOT
BRANCH   4  21
ATOM     21  C7  LG1 d5015      24.962  26.771  27.281  0.00  0.00     0.128 C 
ATOM     22  O1  LG1 d5015      25.779  26.865  26.390  0.00  0.00    -0.298 OA
ATOM     23  C8  LG1 d5015      23.508  26.910  26.988  0.00  0.00     0.091 C 
ENDBRANCH   4  21
TORSDOF 1
ENDMDL
MODEL 3
REMARK VINA RESULT:    -5.054      1.773      7.015
REMARK INTER + INTRA:          -5.386
REMARK INTER:                  -5.231
REMARK INTRA:                  -0.156
REMARK UNBOUND:                -0.037
REMARK  1 active torsions:
REMARK  status: ('A' for Active; 'I' for Inactive)
REMARK    1  A    between atoms: C7_7  and  C4_4 
ROOT
ATOM      1  C1  LG1 d5015      26.484  22.443  31.188  0.00  0.00    -0.004 C 
ATOM      2  C2  LG1 d5015      25.927  22.643  29.775  0.00  0.00    -0.001 C 
ATOM      3  C3  LG1 d5015      25.973  21.331  28.905  0.00  0.00    -0.030 C 
ATOM      4  C4  LG1 d5015      25.273  21.881  27.617  0.00  0.00     0.063 C 
ATOM      5  C5  LG1 d5015      24.126  22.813  28.145  0.00  0.00     0.013 C 
ATOM      6  C6  LG1 d5015      24.466  23.137  29.644  0.00  0.00     0.006 C 
ATOM      7  C9  LG1 d5015      25.124  20.156  29.507  0.00  0.00     0.016 C 
ATOM      8  C10 LG1 d5015      27.468  20.972  28.759  0.00  0.00     0.011 C 
ATOM      9  C11 LG1 d5015      28.134  20.766  30.148  0.00  0.00     0.007 C 
ATOM     10  C12 LG1 d5015      27.982  22.010  31.061  0.00  0.00     0.002 C 
ATOM     11  C13 LG1 d5015      28.676  21.790  32.456  0.00  0.00    -0.016 C 
ATOM     12  C14 LG1 d5015      28.463  23.088  33.336  0.00  0.00    -0.068 C 
ATOM     13  C15 LG1 d5015      29.429  23.682  34.013  0.00  0.00     0.053 C 
ATOM     14  C16 LG1 d5015      30.762  23.106  34.104  0.00  0.00     0.149 C 
ATOM     15  C17 LG1 d5015      31.048  21.739  33.490  0.00  0.00     0.084 C 
ATOM     16  C18 LG1 d5015      30.191  21.557  32.213  0.00  0.00     0.022 C 
ATOM     17  O2  LG1 d5015      31.657  23.688  34.742  0.00  0.00    -0.293 OA
ATOM     18  C19 LG1 d5015      27.066  23.699  33.370  0.00  0.00     0.035 C 
ATOM     19  C20 LG1 d5015      26.429  23.781  31.969  0.00  0.00     0.010 C 
ATOM     20  C21 LG1 d5015      28.040  20.596  33.267  0.00  0.00     0.020 C 
ENDROOT
BRANCH   4  21
ATOM     21  C7  LG1 d5015      24.828  20.804  26.614  0.00  0.00     0.128 C 
ATOM     22  O1  LG1 d5015      25.634  20.012  26.173  0.00  0.00    -0.298 OA
ATOM     23  C8  LG1 d5015      23.400  20.736  26.194  0.00  0.00     0.091 C 
ENDBRANCH   4  21
TORSDOF 1
ENDMDL
MODEL 4
REMARK VINA RESULT:    -4.968      1.579      2.820
REMARK INTER + INTRA:          -5.295
REMARK INTER:                  -5.259
REMARK INTRA:                  -0.037
REMARK UNBOUND:                -0.037
REMARK  1 active torsions:
REMARK  status: ('A' for Active; 'I' for Inactive)
REMARK    1  A    between atoms: C7_7  and  C4_4 
ROOT
ATOM      1  C1  LG1 d5015      28.177  20.840  30.457  0.00  0.00    -0.004 C 
ATOM      2  C2  LG1 d5015      29.206  21.828  31.017  0.00  0.00    -0.001 C 
ATOM      3  C3  LG1 d5015      28.817  22.381  32.439  0.00  0.00    -0.030 C 
ATOM      4  C4  LG1 d5015      30.090  23.250  32.708  0.00  0.00     0.063 C 
ATOM      5  C5  LG1 d5015      31.286  22.403  32.146  0.00  0.00     0.013 C 
ATOM      6  C6  LG1 d5015      30.660  21.325  31.188  0.00  0.00     0.006 C 
ATOM      7  C9  LG1 d5015      28.700  21.261  33.532  0.00  0.00     0.016 C 
ATOM      8  C10 LG1 d5015      27.497  23.161  32.243  0.00  0.00     0.011 C 
ATOM      9  C11 LG1 d5015      26.386  22.246  31.656  0.00  0.00     0.007 C 
ATOM     10  C12 LG1 d5015      26.812  21.592  30.315  0.00  0.00     0.002 C 
ATOM     11  C13 LG1 d5015      25.670  20.683  29.728  0.00  0.00    -0.016 C 
ATOM     12  C14 LG1 d5015      26.183  20.039  28.377  0.00  0.00    -0.068 C 
ATOM     13  C15 LG1 d5015      25.476  20.015  27.261  0.00  0.00     0.053 C 
ATOM     14  C16 LG1 d5015      24.098  20.476  27.222  0.00  0.00     0.149 C 
ATOM     15  C17 LG1 d5015      23.400  20.914  28.506  0.00  0.00     0.084 C 
ATOM     16  C18 LG1 d5015      24.432  21.577  29.453  0.00  0.00     0.022 C 
ATOM     17  O2  LG1 d5015      23.454  20.450  26.157  0.00  0.00    -0.293 OA
ATOM     18  C19 LG1 d5015      27.588  19.445  28.364  0.00  0.00     0.035 C 
ATOM     19  C20 LG1 d5015      28.618  20.364  29.050  0.00  0.00     0.010 C 
ATOM     20  C21 LG1 d5015      25.303  19.481  30.681  0.00  0.00     0.020 C 
ENDROOT
BRANCH   4  21
ATOM     21  C7  LG1 d5015      30.254  23.724  34.162  0.00  0.00     0.128 C 
ATOM     22  O1  LG1 d5015      29.307  24.184  34.763  0.00  0.00    -0.298 OA
ATOM     23  C8  LG1 d5015      31.582  23.607  34.827  0.00  0.00     0.091 C 
ENDBRANCH   4  21
TORSDOF 1
ENDMDL
MODEL 5
REMARK VINA RESULT:    -2.907      1.578      7.139
REMARK INTER + INTRA:          -3.113
REMARK INTER:                  -2.936
REMARK INTRA:                  -0.177
REMARK UNBOUND:                -0.037
REMARK  1 active torsions:
REMARK  status: ('A' for Active; 'I' for Inactive)
REMARK    1  A    between atoms: C7_7  and  C4_4 
ROOT
ATOM      1  C1  LG1 d5015      28.149  20.850  29.405  0.00  0.00    -0.004 C 
ATOM      2  C2  LG1 d5015      27.503  19.706  28.617  0.00  0.00    -0.001 C 
ATOM      3  C3  LG1 d5015      25.943  19.626  28.818  0.00  0.00    -0.030 C 
ATOM      4  C4  LG1 d5015      25.641  18.447  27.834  0.00  0.00     0.063 C 
ATOM      5  C5  LG1 d5015      26.581  18.694  26.602  0.00  0.00     0.013 C 
ATOM      6  C6  LG1 d5015      27.690  19.700  27.080  0.00  0.00     0.006 C 
ATOM      7  C9  LG1 d5015      25.187  20.916  28.343  0.00  0.00     0.016 C 
ATOM      8  C10 LG1 d5015      25.725  19.326  30.317  0.00  0.00     0.011 C 
ATOM      9  C11 LG1 d5015      26.365  20.425  31.209  0.00  0.00     0.007 C 
ATOM     10  C12 LG1 d5015      27.879  20.602  30.926  0.00  0.00     0.002 C 
ATOM     11  C13 LG1 d5015      28.514  21.708  31.848  0.00  0.00    -0.016 C 
ATOM     12  C14 LG1 d5015      30.049  21.843  31.490  0.00  0.00    -0.068 C 
ATOM     13  C15 LG1 d5015      31.013  21.880  32.393  0.00  0.00     0.053 C 
ATOM     14  C16 LG1 d5015      30.722  21.923  33.817  0.00  0.00     0.149 C 
ATOM     15  C17 LG1 d5015      29.279  22.027  34.301  0.00  0.00     0.084 C 
ATOM     16  C18 LG1 d5015      28.352  21.259  33.325  0.00  0.00     0.022 C 
ATOM     17  O2  LG1 d5015      31.647  21.951  34.649  0.00  0.00    -0.293 OA
ATOM     18  C19 LG1 d5015      30.429  21.901  30.014  0.00  0.00     0.035 C 
ATOM     19  C20 LG1 d5015      29.682  20.845  29.176  0.00  0.00     0.010 C 
ATOM     20  C21 LG1 d5015      27.877  23.131  31.614  0.00  0.00     0.020 C 
ENDROOT
BRANCH   4  21
ATOM     21  C7  LG1 d5015      24.154  18.254  27.492  0.00  0.00     0.128 C 
ATOM     22  O1  LG1 d5015      23.400  17.764  28.304  0.00  0.00    -0.298 OA
ATOM     23  C8  LG1 d5015      23.647  18.682  26.158  0.00  0.00     0.091 C 
ENDBRANCH   4  21
TORSDOF 1
ENDMDL
