MODEL 1
REMARK VINA RESULT:    -6.133      0.000      0.000
REMARK INTER + INTRA:          -6.643
REMARK INTER:                  -6.447
REMARK INTRA:                  -0.195
REMARK UNBOUND:                -0.152
REMARK  1 active torsions:
REMARK  status: ('A' for Active; 'I' for Inactive)
REMARK    1  A    between atoms: C7_7  and  C4_4 
ROOT
ATOM      1  C1  LG1 d5015      28.164  20.854  29.434  0.00  0.00    -0.004 C 
ATOM      2  C2  LG1 d5015      27.511  19.721  28.635  0.00  0.00    -0.001 C 
ATOM      3  C3  LG1 d5015      25.955  19.631  28.856  0.00  0.00    -0.030 C 
ATOM      4  C4  LG1 d5015      25.644  18.467  27.857  0.00  0.00     0.063 C 
ATOM      5  C5  LG1 d5015      26.566  18.739  26.616  0.00  0.00     0.013 C 
ATOM      6  C6  LG1 d5015      27.678  19.742  27.096  0.00  0.00     0.006 C 
ATOM      7  C9  LG1 d5015      25.187  20.926  28.414  0.00  0.00     0.016 C 
ATOM      8  C10 LG1 d5015      25.758  19.304  30.353  0.00  0.00     0.011 C 
ATOM      9  C11 LG1 d5015      26.406  20.392  31.255  0.00  0.00     0.007 C 
ATOM     10  C12 LG1 d5015      27.916  20.579  30.954  0.00  0.00     0.002 C 
ATOM     11  C13 LG1 d5015      28.559  21.672  31.886  0.00  0.00    -0.016 C 
ATOM     12  C14 LG1 d5015      30.089  21.819  31.509  0.00  0.00    -0.068 C 
ATOM     13  C15 LG1 d5015      31.064  21.845  32.399  0.00  0.00     0.053 C 
ATOM     14  C16 LG1 d5015      30.793  21.864  33.828  0.00  0.00     0.149 C 
ATOM     15  C17 LG1 d5015      29.356  21.953  34.333  0.00  0.00     0.084 C 
ATOM     16  C18 LG1 d5015      28.419  21.198  33.357  0.00  0.00     0.022 C 
ATOM     17  O2  LG1 d5015      31.729  21.881  34.647  0.00  0.00    -0.293 OA
ATOM     18  C19 LG1 d5015      30.448  21.904  30.029  0.00  0.00     0.035 C 
ATOM     19  C20 LG1 d5015      29.694  20.860  29.184  0.00  0.00     0.010 C 
ATOM     20  C21 LG1 d5015      27.913  23.096  31.684  0.00  0.00     0.020 C 
ENDROOT
BRANCH   4  21
ATOM     21  C7  LG1 d5015      24.154  18.274  27.531  0.00  0.00     0.128 C 
ATOM     22  O1  LG1 d5015      23.400  17.823  28.367  0.00  0.00    -0.298 OA
ATOM     23  C8  LG1 d5015      23.642  18.654  26.185  0.00  0.00     0.091 C 
ENDBRANCH   4  21
TORSDOF 1
ENDMDL
MODEL 2
REMARK VINA RESULT:    -5.256      1.600      7.134
REMARK INTER + INTRA:          -5.714
REMARK INTER:                  -5.655
REMARK INTRA:                  -0.060
REMARK UNBOUND:                -0.152
REMARK  1 active torsions:
REMARK  status: ('A' for Active; 'I' for Inactive)
REMARK    1  A    between atoms: C7_7  and  C4_4 
ROOT
ATOM      1  C1  LG1 d5015      26.681  20.521  31.434  0.00  0.00    -0.004 C 
ATOM      2  C2  LG1 d5015      27.663  20.807  32.575  0.00  0.00    -0.001 C 
ATOM      3  C3  LG1 d5015      28.412  22.182  32.409  0.00  0.00    -0.030 C 
ATOM      4  C4  LG1 d5015      29.225  22.168  33.747  0.00  0.00     0.063 C 
ATOM      5  C5  LG1 d5015      28.240  21.573  34.814  0.00  0.00     0.013 C 
ATOM      6  C6  LG1 d5015      27.093  20.855  34.014  0.00  0.00     0.006 C 
ATOM      7  C9  LG1 d5015      27.448  23.419  32.390  0.00  0.00     0.016 C 
ATOM      8  C10 LG1 d5015      29.245  22.056  31.114  0.00  0.00     0.011 C 
ATOM      9  C11 LG1 d5015      28.337  21.744  29.892  0.00  0.00     0.007 C 
ATOM     10  C12 LG1 d5015      27.495  20.458  30.100  0.00  0.00     0.002 C 
ATOM     11  C13 LG1 d5015      26.595  20.148  28.847  0.00  0.00    -0.016 C 
ATOM     12  C14 LG1 d5015      25.756  18.839  29.141  0.00  0.00    -0.068 C 
ATOM     13  C15 LG1 d5015      25.638  17.837  28.288  0.00  0.00     0.053 C 
ATOM     14  C16 LG1 d5015      26.179  17.915  26.940  0.00  0.00     0.149 C 
ATOM     15  C17 LG1 d5015      26.817  19.209  26.445  0.00  0.00     0.084 C 
ATOM     16  C18 LG1 d5015      27.525  19.919  27.626  0.00  0.00     0.022 C 
ATOM     17  O2  LG1 d5015      26.060  16.955  26.157  0.00  0.00    -0.293 OA
ATOM     18  C19 LG1 d5015      25.076  18.724  30.501  0.00  0.00     0.035 C 
ATOM     19  C20 LG1 d5015      26.005  19.143  31.657  0.00  0.00     0.010 C 
ATOM     20  C21 LG1 d5015      25.547  21.290  28.557  0.00  0.00     0.020 C 
ENDROOT
BRANCH   4  21
ATOM     21  C7  LG1 d5015      29.865  23.512  34.129  0.00  0.00     0.128 C 
ATOM     22  O1  LG1 d5015      29.246  24.316  34.793  0.00  0.00    -0.298 OA
ATOM     23  C8  LG1 d5015      31.254  23.816  33.684  0.00  0.00     0.091 C 
ENDBRANCH   4  21
TORSDOF 1
ENDMDL
MODEL 3
REMARK VINA RESULT:    -5.138      3.672      5.409
REMARK INTER + INTRA:          -5.590
REMARK INTER:                  -5.385
REMARK INTRA:                  -0.205
REMARK UNBOUND:                -0.152
REMARK  1 active torsions:
REMARK  status: ('A' for Active; 'I' for Inactive)
REMARK    1  A    between atoms: C7_7  and  C4_4 
ROOT
ATOM      1  C1  LG1 d5015      26.562  23.765  31.082  0.00  0.00    -0.004 C 
ATOM      2  C2  LG1 d5015      26.077  25.081  30.465  0.00  0.00    -0.001 C 
ATOM      3  C3  LG1 d5015      26.100  25.068  28.891  0.00  0.00    -0.030 C 
ATOM      4  C4  LG1 d5015      25.482  26.483  28.636  0.00  0.00     0.063 C 
ATOM      5  C5  LG1 d5015      24.357  26.636  29.720  0.00  0.00     0.013 C 
ATOM      6  C6  LG1 d5015      24.647  25.554  30.822  0.00  0.00     0.006 C 
ATOM      7  C9  LG1 d5015      25.174  23.967  28.265  0.00  0.00     0.016 C 
ATOM      8  C10 LG1 d5015      27.582  24.897  28.491  0.00  0.00     0.011 C 
ATOM      9  C11 LG1 d5015      28.178  23.591  29.088  0.00  0.00     0.007 C 
ATOM     10  C12 LG1 d5015      28.043  23.537  30.632  0.00  0.00     0.002 C 
ATOM     11  C13 LG1 d5015      28.665  22.217  31.219  0.00  0.00    -0.016 C 
ATOM     12  C14 LG1 d5015      28.473  22.225  32.790  0.00  0.00    -0.068 C 
ATOM     13  C15 LG1 d5015      29.435  21.936  33.648  0.00  0.00     0.053 C 
ATOM     14  C16 LG1 d5015      30.736  21.458  33.203  0.00  0.00     0.149 C 
ATOM     15  C17 LG1 d5015      30.986  21.187  31.723  0.00  0.00     0.084 C 
ATOM     16  C18 LG1 d5015      30.177  22.195  30.870  0.00  0.00     0.022 C 
ATOM     17  O2  LG1 d5015      31.628  21.198  34.030  0.00  0.00    -0.293 OA
ATOM     18  C19 LG1 d5015      27.106  22.623  33.334  0.00  0.00     0.035 C 
ATOM     19  C20 LG1 d5015      26.534  23.868  32.628  0.00  0.00     0.010 C 
ATOM     20  C21 LG1 d5015      27.941  20.919  30.691  0.00  0.00     0.020 C 
ENDROOT
BRANCH   4  21
ATOM     21  C7  LG1 d5015      25.033  26.741  27.189  0.00  0.00     0.128 C 
ATOM     22  O1  LG1 d5015      25.854  26.818  26.299  0.00  0.00    -0.298 OA
ATOM     23  C8  LG1 d5015      23.582  26.888  26.887  0.00  0.00     0.091 C 
ENDBRANCH   4  21
TORSDOF 1
ENDMDL
MODEL 4
REMARK VINA RESULT:    -4.845      1.621      7.046
REMARK INTER + INTRA:          -5.280
REMARK INTER:                  -5.229
REMARK INTRA:                  -0.051
REMARK UNBOUND:                -0.152
REMARK  1 active torsions:
REMARK  status: ('A' for Active; 'I' for Inactive)
REMARK    1  A    between atoms: C7_7  and  C4_4 
ROOT
ATOM      1  C1  LG1 d5015      28.163  20.931  30.489  0.00  0.00    -0.004 C 
ATOM      2  C2  LG1 d5015      29.212  21.886  31.068  0.00  0.00    -0.001 C 
ATOM      3  C3  LG1 d5015      28.827  22.430  32.494  0.00  0.00    -0.030 C 
ATOM      4  C4  LG1 d5015      30.119  23.265  32.782  0.00  0.00     0.063 C 
ATOM      5  C5  LG1 d5015      31.298  22.397  32.216  0.00  0.00     0.013 C 
ATOM      6  C6  LG1 d5015      30.652  21.347  31.241  0.00  0.00     0.006 C 
ATOM      7  C9  LG1 d5015      28.677  21.299  33.572  0.00  0.00     0.016 C 
ATOM      8  C10 LG1 d5015      27.528  23.244  32.300  0.00  0.00     0.011 C 
ATOM      9  C11 LG1 d5015      26.399  22.363  31.695  0.00  0.00     0.007 C 
ATOM     10  C12 LG1 d5015      26.817  21.717  30.349  0.00  0.00     0.002 C 
ATOM     11  C13 LG1 d5015      25.658  20.843  29.744  0.00  0.00    -0.016 C 
ATOM     12  C14 LG1 d5015      26.163  20.204  28.387  0.00  0.00    -0.068 C 
ATOM     13  C15 LG1 d5015      25.463  20.211  27.267  0.00  0.00     0.053 C 
ATOM     14  C16 LG1 d5015      24.096  20.706  27.225  0.00  0.00     0.149 C 
ATOM     15  C17 LG1 d5015      23.401  21.144  28.512  0.00  0.00     0.084 C 
ATOM     16  C18 LG1 d5015      24.442  21.769  29.473  0.00  0.00     0.022 C 
ATOM     17  O2  LG1 d5015      23.459  20.709  26.157  0.00  0.00    -0.293 OA
ATOM     18  C19 LG1 d5015      27.553  19.577  28.375  0.00  0.00     0.035 C 
ATOM     19  C20 LG1 d5015      28.601  20.462  29.078  0.00  0.00     0.010 C 
ATOM     20  C21 LG1 d5015      25.256  19.638  30.678  0.00  0.00     0.020 C 
ENDROOT
BRANCH   4  21
ATOM     21  C7  LG1 d5015      30.285  23.716  34.243  0.00  0.00     0.128 C 
ATOM     22  O1  LG1 d5015      29.351  24.207  34.840  0.00  0.00    -0.298 OA
ATOM     23  C8  LG1 d5015      31.600  23.538  34.920  0.00  0.00     0.091 C 
ENDBRANCH   4  21
TORSDOF 1
ENDMDL
MODEL 5
REMARK VINA RESULT:    -4.530      3.077      6.997
REMARK INTER + INTRA:          -4.947
REMARK INTER:                  -4.795
REMARK INTRA:                  -0.152
REMARK UNBOUND:                -0.152
REMARK  1 active torsions:
REMARK  status: ('A' for Active; 'I' for Inactive)
REMARK    1  A    between atoms: C7_7  and  C4_4 
ROOT
ATOM      1  C1  LG1 d5015      27.469  22.363  29.217  0.00  0.00    -0.004 C 
ATOM      2  C2  LG1 d5015      28.891  22.326  29.788  0.00  0.00    -0.001 C 
ATOM      3  C3  LG1 d5015      28.925  22.427  31.359  0.00  0.00    -0.030 C 
ATOM      4  C4  LG1 d5015      30.468  22.274  31.570  0.00  0.00     0.063 C 
ATOM      5  C5  LG1 d5015      30.915  21.190  30.526  0.00  0.00     0.013 C 
ATOM      6  C6  LG1 d5015      29.759  21.085  29.467  0.00  0.00     0.006 C 
ATOM      7  C9  LG1 d5015      28.175  21.249  32.075  0.00  0.00     0.016 C 
ATOM      8  C10 LG1 d5015      28.330  23.810  31.707  0.00  0.00     0.011 C 
ATOM      9  C11 LG1 d5015      26.887  23.956  31.151  0.00  0.00     0.007 C 
ATOM     10  C12 LG1 d5015      26.823  23.730  29.618  0.00  0.00     0.002 C 
ATOM     11  C13 LG1 d5015      25.357  23.898  29.071  0.00  0.00    -0.016 C 
ATOM     12  C14 LG1 d5015      25.369  23.635  27.510  0.00  0.00    -0.068 C 
ATOM     13  C15 LG1 d5015      24.775  24.420  26.630  0.00  0.00     0.053 C 
ATOM     14  C16 LG1 d5015      23.944  25.541  27.045  0.00  0.00     0.149 C 
ATOM     15  C17 LG1 d5015      23.661  25.776  28.525  0.00  0.00     0.084 C 
ATOM     16  C18 LG1 d5015      24.894  25.351  29.361  0.00  0.00     0.022 C 
ATOM     17  O2  LG1 d5015      23.400  26.270  26.196  0.00  0.00    -0.293 OA
ATOM     18  C19 LG1 d5015      26.140  22.422  27.003  0.00  0.00     0.035 C 
ATOM     19  C20 LG1 d5015      27.522  22.286  27.670  0.00  0.00     0.010 C 
ATOM     20  C21 LG1 d5015      24.355  22.849  29.690  0.00  0.00     0.020 C 
ENDROOT
BRANCH   4  21
ATOM     21  C7  LG1 d5015      30.899  21.999  33.020  0.00  0.00     0.128 C 
ATOM     22  O1  LG1 d5015      31.277  20.894  33.345  0.00  0.00    -0.298 OA
ATOM     23  C8  LG1 d5015      30.856  23.103  34.019  0.00  0.00     0.091 C 
ENDBRANCH   4  21
TORSDOF 1
ENDMDL
