REMARK INTER + INTRA:          -6.653
REMARK INTER:                  -6.452
REMARK INTRA:                  -0.202
REMARK UNBOUND:                -0.101
REMARK  1 active torsions:
REMARK  status: ('A' for Active; 'I' for Inactive)
REMARK    1  A    between atoms: C7_7  and  C4_4 
ROOT
ATOM      1  C1  LG1 d5015      28.174  20.889  29.469  0.00  0.00    -0.004 C 
ATOM      2  C2  LG1 d5015      27.523  19.750  28.676  0.00  0.00    -0.001 C 
ATOM      3  C3  LG1 d5015      25.965  19.667  28.887  0.00  0.00    -0.030 C 
ATOM      4  C4  LG1 d5015      25.657  18.495  27.896  0.00  0.00     0.063 C 
ATOM      5  C5  LG1 d5015      26.588  18.754  26.660  0.00  0.00     0.013 C 
ATOM      6  C6  LG1 d5015      27.700  19.757  27.138  0.00  0.00     0.006 C 
ATOM      7  C9  LG1 d5015      25.204  20.961  28.428  0.00  0.00     0.016 C 
ATOM      8  C10 LG1 d5015      25.757  19.354  30.386  0.00  0.00     0.011 C 
ATOM      9  C11 LG1 d5015      26.402  20.448  31.282  0.00  0.00     0.007 C 
ATOM     10  C12 LG1 d5015      27.915  20.628  30.990  0.00  0.00     0.002 C 
ATOM     11  C13 LG1 d5015      28.555  21.727  31.917  0.00  0.00    -0.016 C 
ATOM     12  C14 LG1 d5015      30.088  21.866  31.549  0.00  0.00    -0.068 C 
ATOM     13  C15 LG1 d5015      31.057  21.897  32.445  0.00  0.00     0.053 C 
ATOM     14  C16 LG1 d5015      30.776  21.929  33.872  0.00  0.00     0.149 C 
ATOM     15  C17 LG1 d5015      29.336  22.027  34.366  0.00  0.00     0.084 C 
ATOM     16  C18 LG1 d5015      28.403  21.266  33.391  0.00  0.00     0.022 C 
ATOM     17  O2  LG1 d5015      31.707  21.950  34.697  0.00  0.00    -0.293 OA
ATOM     18  C19 LG1 d5015      30.457  21.936  30.071  0.00  0.00     0.035 C 
ATOM     19  C20 LG1 d5015      29.705  20.887  29.229  0.00  0.00     0.010 C 
ATOM     20  C21 LG1 d5015      27.915  23.151  31.698  0.00  0.00     0.020 C 
ENDROOT
BRANCH   4  21
ATOM     21  C7  LG1 d5015      24.168  18.305  27.562  0.00  0.00     0.128 C 
ATOM     22  O1  LG1 d5015      23.400  17.904  28.410  0.00  0.00    -0.298 OA
ATOM     23  C8  LG1 d5015      23.677  18.623  26.193  0.00  0.00     0.091 C 
ENDBRANCH   4  21
TORSDOF 1
ENDMDL
