REMARK INTER + INTRA:          -6.643
REMARK INTER:                  -6.447
REMARK INTRA:                  -0.195
REMARK UNBOUND:                -0.152
REMARK  1 active torsions:
REMARK  status: ('A' for Active; 'I' for Inactive)
REMARK    1  A    between atoms: C7_7  and  C4_4 
ROOT
ATOM      1  C1  LG1 d5015      28.164  20.854  29.434  0.00  0.00    -0.004 C 
ATOM      2  C2  LG1 d5015      27.511  19.721  28.635  0.00  0.00    -0.001 C 
ATOM      3  C3  LG1 d5015      25.955  19.631  28.856  0.00  0.00    -0.030 C 
ATOM      4  C4  LG1 d5015      25.644  18.467  27.857  0.00  0.00     0.063 C 
ATOM      5  C5  LG1 d5015      26.566  18.739  26.616  0.00  0.00     0.013 C 
ATOM      6  C6  LG1 d5015      27.678  19.742  27.096  0.00  0.00     0.006 C 
ATOM      7  C9  LG1 d5015      25.187  20.926  28.414  0.00  0.00     0.016 C 
ATOM      8  C10 LG1 d5015      25.758  19.304  30.353  0.00  0.00     0.011 C 
ATOM      9  C11 LG1 d5015      26.406  20.392  31.255  0.00  0.00     0.007 C 
ATOM     10  C12 LG1 d5015      27.916  20.579  30.954  0.00  0.00     0.002 C 
ATOM     11  C13 LG1 d5015      28.559  21.672  31.886  0.00  0.00    -0.016 C 
ATOM     12  C14 LG1 d5015      30.089  21.819  31.509  0.00  0.00    -0.068 C 
ATOM     13  C15 LG1 d5015      31.064  21.845  32.399  0.00  0.00     0.053 C 
ATOM     14  C16 LG1 d5015      30.793  21.864  33.828  0.00  0.00     0.149 C 
ATOM     15  C17 LG1 d5015      29.356  21.953  34.333  0.00  0.00     0.084 C 
ATOM     16  C18 LG1 d5015      28.419  21.198  33.357  0.00  0.00     0.022 C 
ATOM     17  O2  LG1 d5015      31.729  21.881  34.647  0.00  0.00    -0.293 OA
ATOM     18  C19 LG1 d5015      30.448  21.904  30.029  0.00  0.00     0.035 C 
ATOM     19  C20 LG1 d5015      29.694  20.860  29.184  0.00  0.00     0.010 C 
ATOM     20  C21 LG1 d5015      27.913  23.096  31.684  0.00  0.00     0.020 C 
ENDROOT
BRANCH   4  21
ATOM     21  C7  LG1 d5015      24.154  18.274  27.531  0.00  0.00     0.128 C 
ATOM     22  O1  LG1 d5015      23.400  17.823  28.367  0.00  0.00    -0.298 OA
ATOM     23  C8  LG1 d5015      23.642  18.654  26.185  0.00  0.00     0.091 C 
ENDBRANCH   4  21
TORSDOF 1
ENDMDL
