REMARK INTER + INTRA:          -5.295
REMARK INTER:                  -5.259
REMARK INTRA:                  -0.037
REMARK UNBOUND:                -0.037
REMARK  1 active torsions:
REMARK  status: ('A' for Active; 'I' for Inactive)
REMARK    1  A    between atoms: C7_7  and  C4_4 
ROOT
ATOM      1  C1  LG1 d5015      28.177  20.840  30.457  0.00  0.00    -0.004 C 
ATOM      2  C2  LG1 d5015      29.206  21.828  31.017  0.00  0.00    -0.001 C 
ATOM      3  C3  LG1 d5015      28.817  22.381  32.439  0.00  0.00    -0.030 C 
ATOM      4  C4  LG1 d5015      30.090  23.250  32.708  0.00  0.00     0.063 C 
ATOM      5  C5  LG1 d5015      31.286  22.403  32.146  0.00  0.00     0.013 C 
ATOM      6  C6  LG1 d5015      30.660  21.325  31.188  0.00  0.00     0.006 C 
ATOM      7  C9  LG1 d5015      28.700  21.261  33.532  0.00  0.00     0.016 C 
ATOM      8  C10 LG1 d5015      27.497  23.161  32.243  0.00  0.00     0.011 C 
ATOM      9  C11 LG1 d5015      26.386  22.246  31.656  0.00  0.00     0.007 C 
ATOM     10  C12 LG1 d5015      26.812  21.592  30.315  0.00  0.00     0.002 C 
ATOM     11  C13 LG1 d5015      25.670  20.683  29.728  0.00  0.00    -0.016 C 
ATOM     12  C14 LG1 d5015      26.183  20.039  28.377  0.00  0.00    -0.068 C 
ATOM     13  C15 LG1 d5015      25.476  20.015  27.261  0.00  0.00     0.053 C 
ATOM     14  C16 LG1 d5015      24.098  20.476  27.222  0.00  0.00     0.149 C 
ATOM     15  C17 LG1 d5015      23.400  20.914  28.506  0.00  0.00     0.084 C 
ATOM     16  C18 LG1 d5015      24.432  21.577  29.453  0.00  0.00     0.022 C 
ATOM     17  O2  LG1 d5015      23.454  20.450  26.157  0.00  0.00    -0.293 OA
ATOM     18  C19 LG1 d5015      27.588  19.445  28.364  0.00  0.00     0.035 C 
ATOM     19  C20 LG1 d5015      28.618  20.364  29.050  0.00  0.00     0.010 C 
ATOM     20  C21 LG1 d5015      25.303  19.481  30.681  0.00  0.00     0.020 C 
ENDROOT
BRANCH   4  21
ATOM     21  C7  LG1 d5015      30.254  23.724  34.162  0.00  0.00     0.128 C 
ATOM     22  O1  LG1 d5015      29.307  24.184  34.763  0.00  0.00    -0.298 OA
ATOM     23  C8  LG1 d5015      31.582  23.607  34.827  0.00  0.00     0.091 C 
ENDBRANCH   4  21
TORSDOF 1
ENDMDL
