REMARK INTER + INTRA:          -4.659
REMARK INTER:                  -4.517
REMARK INTRA:                  -0.142
REMARK UNBOUND:                -0.131
REMARK  1 active torsions:
REMARK  status: ('A' for Active; 'I' for Inactive)
REMARK    1  A    between atoms: C7_7  and  C4_4 
ROOT
ATOM      1  C1  LG1 d5015      26.895  20.600  31.994  0.00  0.00    -0.004 C 
ATOM      2  C2  LG1 d5015      27.694  20.459  30.694  0.00  0.00    -0.001 C 
ATOM      3  C3  LG1 d5015      26.777  20.331  29.420  0.00  0.00    -0.030 C 
ATOM      4  C4  LG1 d5015      27.898  20.295  28.328  0.00  0.00     0.063 C 
ATOM      5  C5  LG1 d5015      28.970  21.333  28.813  0.00  0.00     0.013 C 
ATOM      6  C6  LG1 d5015      28.687  21.592  30.337  0.00  0.00     0.006 C 
ATOM      7  C9  LG1 d5015      25.854  21.579  29.189  0.00  0.00     0.016 C 
ATOM      8  C10 LG1 d5015      25.975  19.024  29.606  0.00  0.00     0.011 C 
ATOM      9  C11 LG1 d5015      25.140  19.059  30.916  0.00  0.00     0.007 C 
ATOM     10  C12 LG1 d5015      26.021  19.314  32.166  0.00  0.00     0.002 C 
ATOM     11  C13 LG1 d5015      25.162  19.331  33.484  0.00  0.00    -0.016 C 
ATOM     12  C14 LG1 d5015      26.123  19.614  34.709  0.00  0.00    -0.068 C 
ATOM     13  C15 LG1 d5015      26.104  18.918  35.832  0.00  0.00     0.053 C 
ATOM     14  C16 LG1 d5015      25.096  17.899  36.082  0.00  0.00     0.149 C 
ATOM     15  C17 LG1 d5015      23.968  17.677  35.079  0.00  0.00     0.084 C 
ATOM     16  C18 LG1 d5015      24.493  17.939  33.645  0.00  0.00     0.022 C 
ATOM     17  O2  LG1 d5015      25.104  17.253  37.144  0.00  0.00    -0.293 OA
ATOM     18  C19 LG1 d5015      27.147  20.734  34.561  0.00  0.00     0.035 C 
ATOM     19  C20 LG1 d5015      27.865  20.694  33.199  0.00  0.00     0.010 C 
ATOM     20  C21 LG1 d5015      24.084  20.482  33.491  0.00  0.00     0.020 C 
ENDROOT
BRANCH   4  21
ATOM     21  C7  LG1 d5015      27.402  20.495  26.886  0.00  0.00     0.128 C 
ATOM     22  O1  LG1 d5015      27.518  21.574  26.345  0.00  0.00    -0.298 OA
ATOM     23  C8  LG1 d5015      26.786  19.352  26.157  0.00  0.00     0.091 C 
ENDBRANCH   4  21
TORSDOF 1
ENDMDL
