REMARK INTER + INTRA:          -4.947
REMARK INTER:                  -4.795
REMARK INTRA:                  -0.152
REMARK UNBOUND:                -0.152
REMARK  1 active torsions:
REMARK  status: ('A' for Active; 'I' for Inactive)
REMARK    1  A    between atoms: C7_7  and  C4_4 
ROOT
ATOM      1  C1  LG1 d5015      27.469  22.363  29.217  0.00  0.00    -0.004 C 
ATOM      2  C2  LG1 d5015      28.891  22.326  29.788  0.00  0.00    -0.001 C 
ATOM      3  C3  LG1 d5015      28.925  22.427  31.359  0.00  0.00    -0.030 C 
ATOM      4  C4  LG1 d5015      30.468  22.274  31.570  0.00  0.00     0.063 C 
ATOM      5  C5  LG1 d5015      30.915  21.190  30.526  0.00  0.00     0.013 C 
ATOM      6  C6  LG1 d5015      29.759  21.085  29.467  0.00  0.00     0.006 C 
ATOM      7  C9  LG1 d5015      28.175  21.249  32.075  0.00  0.00     0.016 C 
ATOM      8  C10 LG1 d5015      28.330  23.810  31.707  0.00  0.00     0.011 C 
ATOM      9  C11 LG1 d5015      26.887  23.956  31.151  0.00  0.00     0.007 C 
ATOM     10  C12 LG1 d5015      26.823  23.730  29.618  0.00  0.00     0.002 C 
ATOM     11  C13 LG1 d5015      25.357  23.898  29.071  0.00  0.00    -0.016 C 
ATOM     12  C14 LG1 d5015      25.369  23.635  27.510  0.00  0.00    -0.068 C 
ATOM     13  C15 LG1 d5015      24.775  24.420  26.630  0.00  0.00     0.053 C 
ATOM     14  C16 LG1 d5015      23.944  25.541  27.045  0.00  0.00     0.149 C 
ATOM     15  C17 LG1 d5015      23.661  25.776  28.525  0.00  0.00     0.084 C 
ATOM     16  C18 LG1 d5015      24.894  25.351  29.361  0.00  0.00     0.022 C 
ATOM     17  O2  LG1 d5015      23.400  26.270  26.196  0.00  0.00    -0.293 OA
ATOM     18  C19 LG1 d5015      26.140  22.422  27.003  0.00  0.00     0.035 C 
ATOM     19  C20 LG1 d5015      27.522  22.286  27.670  0.00  0.00     0.010 C 
ATOM     20  C21 LG1 d5015      24.355  22.849  29.690  0.00  0.00     0.020 C 
ENDROOT
BRANCH   4  21
ATOM     21  C7  LG1 d5015      30.899  21.999  33.020  0.00  0.00     0.128 C 
ATOM     22  O1  LG1 d5015      31.277  20.894  33.345  0.00  0.00    -0.298 OA
ATOM     23  C8  LG1 d5015      30.856  23.103  34.019  0.00  0.00     0.091 C 
ENDBRANCH   4  21
TORSDOF 1
ENDMDL
