REMARK INTER + INTRA:          -5.377
REMARK INTER:                  -5.208
REMARK INTRA:                  -0.169
REMARK UNBOUND:                -0.101
REMARK  1 active torsions:
REMARK  status: ('A' for Active; 'I' for Inactive)
REMARK    1  A    between atoms: C7_7  and  C4_4 
ROOT
ATOM      1  C1  LG1 d5015      26.604  22.468  31.201  0.00  0.00    -0.004 C 
ATOM      2  C2  LG1 d5015      26.055  22.671  29.785  0.00  0.00    -0.001 C 
ATOM      3  C3  LG1 d5015      26.096  21.358  28.917  0.00  0.00    -0.030 C 
ATOM      4  C4  LG1 d5015      25.405  21.911  27.625  0.00  0.00     0.063 C 
ATOM      5  C5  LG1 d5015      24.262  22.851  28.147  0.00  0.00     0.013 C 
ATOM      6  C6  LG1 d5015      24.598  23.174  29.648  0.00  0.00     0.006 C 
ATOM      7  C9  LG1 d5015      25.237  20.189  29.515  0.00  0.00     0.016 C 
ATOM      8  C10 LG1 d5015      27.590  20.989  28.777  0.00  0.00     0.011 C 
ATOM      9  C11 LG1 d5015      28.248  20.780  30.169  0.00  0.00     0.007 C 
ATOM     10  C12 LG1 d5015      28.100  22.026  31.081  0.00  0.00     0.002 C 
ATOM     11  C13 LG1 d5015      28.786  21.802  32.480  0.00  0.00    -0.016 C 
ATOM     12  C14 LG1 d5015      28.577  23.103  33.357  0.00  0.00    -0.068 C 
ATOM     13  C15 LG1 d5015      29.544  23.690  34.038  0.00  0.00     0.053 C 
ATOM     14  C16 LG1 d5015      30.873  23.107  34.135  0.00  0.00     0.149 C 
ATOM     15  C17 LG1 d5015      31.153  21.737  33.524  0.00  0.00     0.084 C 
ATOM     16  C18 LG1 d5015      30.301  21.559  32.244  0.00  0.00     0.022 C 
ATOM     17  O2  LG1 d5015      31.769  23.683  34.778  0.00  0.00    -0.293 OA
ATOM     18  C19 LG1 d5015      27.184  23.722  33.384  0.00  0.00     0.035 C 
ATOM     19  C20 LG1 d5015      26.554  23.807  31.980  0.00  0.00     0.010 C 
ATOM     20  C21 LG1 d5015      28.139  20.613  33.288  0.00  0.00     0.020 C 
ENDROOT
BRANCH   4  21
ATOM     21  C7  LG1 d5015      24.958  20.836  26.620  0.00  0.00     0.128 C 
ATOM     22  O1  LG1 d5015      25.767  20.059  26.160  0.00  0.00    -0.298 OA
ATOM     23  C8  LG1 d5015      23.525  20.753  26.224  0.00  0.00     0.091 C 
ENDBRANCH   4  21
TORSDOF 1
ENDMDL
