REMARK INTER + INTRA:          -3.113
REMARK INTER:                  -2.936
REMARK INTRA:                  -0.177
REMARK UNBOUND:                -0.037
REMARK  1 active torsions:
REMARK  status: ('A' for Active; 'I' for Inactive)
REMARK    1  A    between atoms: C7_7  and  C4_4 
ROOT
ATOM      1  C1  LG1 d5015      28.149  20.850  29.405  0.00  0.00    -0.004 C 
ATOM      2  C2  LG1 d5015      27.503  19.706  28.617  0.00  0.00    -0.001 C 
ATOM      3  C3  LG1 d5015      25.943  19.626  28.818  0.00  0.00    -0.030 C 
ATOM      4  C4  LG1 d5015      25.641  18.447  27.834  0.00  0.00     0.063 C 
ATOM      5  C5  LG1 d5015      26.581  18.694  26.602  0.00  0.00     0.013 C 
ATOM      6  C6  LG1 d5015      27.690  19.700  27.080  0.00  0.00     0.006 C 
ATOM      7  C9  LG1 d5015      25.187  20.916  28.343  0.00  0.00     0.016 C 
ATOM      8  C10 LG1 d5015      25.725  19.326  30.317  0.00  0.00     0.011 C 
ATOM      9  C11 LG1 d5015      26.365  20.425  31.209  0.00  0.00     0.007 C 
ATOM     10  C12 LG1 d5015      27.879  20.602  30.926  0.00  0.00     0.002 C 
ATOM     11  C13 LG1 d5015      28.514  21.708  31.848  0.00  0.00    -0.016 C 
ATOM     12  C14 LG1 d5015      30.049  21.843  31.490  0.00  0.00    -0.068 C 
ATOM     13  C15 LG1 d5015      31.013  21.880  32.393  0.00  0.00     0.053 C 
ATOM     14  C16 LG1 d5015      30.722  21.923  33.817  0.00  0.00     0.149 C 
ATOM     15  C17 LG1 d5015      29.279  22.027  34.301  0.00  0.00     0.084 C 
ATOM     16  C18 LG1 d5015      28.352  21.259  33.325  0.00  0.00     0.022 C 
ATOM     17  O2  LG1 d5015      31.647  21.951  34.649  0.00  0.00    -0.293 OA
ATOM     18  C19 LG1 d5015      30.429  21.901  30.014  0.00  0.00     0.035 C 
ATOM     19  C20 LG1 d5015      29.682  20.845  29.176  0.00  0.00     0.010 C 
ATOM     20  C21 LG1 d5015      27.877  23.131  31.614  0.00  0.00     0.020 C 
ENDROOT
BRANCH   4  21
ATOM     21  C7  LG1 d5015      24.154  18.254  27.492  0.00  0.00     0.128 C 
ATOM     22  O1  LG1 d5015      23.400  17.764  28.304  0.00  0.00    -0.298 OA
ATOM     23  C8  LG1 d5015      23.647  18.682  26.158  0.00  0.00     0.091 C 
ENDBRANCH   4  21
TORSDOF 1
ENDMDL
