REMARK INTER + INTRA:          -5.707
REMARK INTER:                  -5.648
REMARK INTRA:                  -0.059
REMARK UNBOUND:                -0.101
REMARK  1 active torsions:
REMARK  status: ('A' for Active; 'I' for Inactive)
REMARK    1  A    between atoms: C7_7  and  C4_4 
ROOT
ATOM      1  C1  LG1 d5015      26.676  20.529  31.429  0.00  0.00    -0.004 C 
ATOM      2  C2  LG1 d5015      27.654  20.814  32.575  0.00  0.00    -0.001 C 
ATOM      3  C3  LG1 d5015      28.409  22.185  32.410  0.00  0.00    -0.030 C 
ATOM      4  C4  LG1 d5015      29.215  22.171  33.751  0.00  0.00     0.063 C 
ATOM      5  C5  LG1 d5015      28.223  21.582  34.815  0.00  0.00     0.013 C 
ATOM      6  C6  LG1 d5015      27.077  20.867  34.011  0.00  0.00     0.006 C 
ATOM      7  C9  LG1 d5015      27.450  23.427  32.383  0.00  0.00     0.016 C 
ATOM      8  C10 LG1 d5015      29.248  22.054  31.118  0.00  0.00     0.011 C 
ATOM      9  C11 LG1 d5015      28.345  21.742  29.892  0.00  0.00     0.007 C 
ATOM     10  C12 LG1 d5015      27.497  20.460  30.099  0.00  0.00     0.002 C 
ATOM     11  C13 LG1 d5015      26.602  20.151  28.843  0.00  0.00    -0.016 C 
ATOM     12  C14 LG1 d5015      25.756  18.846  29.135  0.00  0.00    -0.068 C 
ATOM     13  C15 LG1 d5015      25.638  17.843  28.284  0.00  0.00     0.053 C 
ATOM     14  C16 LG1 d5015      26.186  17.915  26.938  0.00  0.00     0.149 C 
ATOM     15  C17 LG1 d5015      26.832  19.206  26.444  0.00  0.00     0.084 C 
ATOM     16  C18 LG1 d5015      27.537  19.916  27.627  0.00  0.00     0.022 C 
ATOM     17  O2  LG1 d5015      26.068  16.955  26.157  0.00  0.00    -0.293 OA
ATOM     18  C19 LG1 d5015      25.069  18.736  30.492  0.00  0.00     0.035 C 
ATOM     19  C20 LG1 d5015      25.994  19.155  31.651  0.00  0.00     0.010 C 
ATOM     20  C21 LG1 d5015      25.560  21.297  28.545  0.00  0.00     0.020 C 
ENDROOT
BRANCH   4  21
ATOM     21  C7  LG1 d5015      29.859  23.514  34.134  0.00  0.00     0.128 C 
ATOM     22  O1  LG1 d5015      29.241  24.319  34.797  0.00  0.00    -0.298 OA
ATOM     23  C8  LG1 d5015      31.249  23.815  33.689  0.00  0.00     0.091 C 
ENDBRANCH   4  21
TORSDOF 1
ENDMDL
