MODEL 1
REMARK VINA RESULT:    -6.190      0.000      0.000
REMARK INTER + INTRA:          -6.653
REMARK INTER:                  -6.452
REMARK INTRA:                  -0.202
REMARK UNBOUND:                -0.101
REMARK  1 active torsions:
REMARK  status: ('A' for Active; 'I' for Inactive)
REMARK    1  A    between atoms: C7_7  and  C4_4 
ROOT
ATOM      1  C1  LG1 d5015      28.174  20.889  29.469  0.00  0.00    -0.004 C 
ATOM      2  C2  LG1 d5015      27.523  19.750  28.676  0.00  0.00    -0.001 C 
ATOM      3  C3  LG1 d5015      25.965  19.667  28.887  0.00  0.00    -0.030 C 
ATOM      4  C4  LG1 d5015      25.657  18.495  27.896  0.00  0.00     0.063 C 
ATOM      5  C5  LG1 d5015      26.588  18.754  26.660  0.00  0.00     0.013 C 
ATOM      6  C6  LG1 d5015      27.700  19.757  27.138  0.00  0.00     0.006 C 
ATOM      7  C9  LG1 d5015      25.204  20.961  28.428  0.00  0.00     0.016 C 
ATOM      8  C10 LG1 d5015      25.757  19.354  30.386  0.00  0.00     0.011 C 
ATOM      9  C11 LG1 d5015      26.402  20.448  31.282  0.00  0.00     0.007 C 
ATOM     10  C12 LG1 d5015      27.915  20.628  30.990  0.00  0.00     0.002 C 
ATOM     11  C13 LG1 d5015      28.555  21.727  31.917  0.00  0.00    -0.016 C 
ATOM     12  C14 LG1 d5015      30.088  21.866  31.549  0.00  0.00    -0.068 C 
ATOM     13  C15 LG1 d5015      31.057  21.897  32.445  0.00  0.00     0.053 C 
ATOM     14  C16 LG1 d5015      30.776  21.929  33.872  0.00  0.00     0.149 C 
ATOM     15  C17 LG1 d5015      29.336  22.027  34.366  0.00  0.00     0.084 C 
ATOM     16  C18 LG1 d5015      28.403  21.266  33.391  0.00  0.00     0.022 C 
ATOM     17  O2  LG1 d5015      31.707  21.950  34.697  0.00  0.00    -0.293 OA
ATOM     18  C19 LG1 d5015      30.457  21.936  30.071  0.00  0.00     0.035 C 
ATOM     19  C20 LG1 d5015      29.705  20.887  29.229  0.00  0.00     0.010 C 
ATOM     20  C21 LG1 d5015      27.915  23.151  31.698  0.00  0.00     0.020 C 
ENDROOT
BRANCH   4  21
ATOM     21  C7  LG1 d5015      24.168  18.305  27.562  0.00  0.00     0.128 C 
ATOM     22  O1  LG1 d5015      23.400  17.904  28.410  0.00  0.00    -0.298 OA
ATOM     23  C8  LG1 d5015      23.677  18.623  26.193  0.00  0.00     0.091 C 
ENDBRANCH   4  21
TORSDOF 1
ENDMDL
MODEL 2
REMARK VINA RESULT:    -5.296      1.591      7.131
REMARK INTER + INTRA:          -5.707
REMARK INTER:                  -5.648
REMARK INTRA:                  -0.059
REMARK UNBOUND:                -0.101
REMARK  1 active torsions:
REMARK  status: ('A' for Active; 'I' for Inactive)
REMARK    1  A    between atoms: C7_7  and  C4_4 
ROOT
ATOM      1  C1  LG1 d5015      26.676  20.529  31.429  0.00  0.00    -0.004 C 
ATOM      2  C2  LG1 d5015      27.654  20.814  32.575  0.00  0.00    -0.001 C 
ATOM      3  C3  LG1 d5015      28.409  22.185  32.410  0.00  0.00    -0.030 C 
ATOM      4  C4  LG1 d5015      29.215  22.171  33.751  0.00  0.00     0.063 C 
ATOM      5  C5  LG1 d5015      28.223  21.582  34.815  0.00  0.00     0.013 C 
ATOM      6  C6  LG1 d5015      27.077  20.867  34.011  0.00  0.00     0.006 C 
ATOM      7  C9  LG1 d5015      27.450  23.427  32.383  0.00  0.00     0.016 C 
ATOM      8  C10 LG1 d5015      29.248  22.054  31.118  0.00  0.00     0.011 C 
ATOM      9  C11 LG1 d5015      28.345  21.742  29.892  0.00  0.00     0.007 C 
ATOM     10  C12 LG1 d5015      27.497  20.460  30.099  0.00  0.00     0.002 C 
ATOM     11  C13 LG1 d5015      26.602  20.151  28.843  0.00  0.00    -0.016 C 
ATOM     12  C14 LG1 d5015      25.756  18.846  29.135  0.00  0.00    -0.068 C 
ATOM     13  C15 LG1 d5015      25.638  17.843  28.284  0.00  0.00     0.053 C 
ATOM     14  C16 LG1 d5015      26.186  17.915  26.938  0.00  0.00     0.149 C 
ATOM     15  C17 LG1 d5015      26.832  19.206  26.444  0.00  0.00     0.084 C 
ATOM     16  C18 LG1 d5015      27.537  19.916  27.627  0.00  0.00     0.022 C 
ATOM     17  O2  LG1 d5015      26.068  16.955  26.157  0.00  0.00    -0.293 OA
ATOM     18  C19 LG1 d5015      25.069  18.736  30.492  0.00  0.00     0.035 C 
ATOM     19  C20 LG1 d5015      25.994  19.155  31.651  0.00  0.00     0.010 C 
ATOM     20  C21 LG1 d5015      25.560  21.297  28.545  0.00  0.00     0.020 C 
ENDROOT
BRANCH   4  21
ATOM     21  C7  LG1 d5015      29.859  23.514  34.134  0.00  0.00     0.128 C 
ATOM     22  O1  LG1 d5015      29.241  24.319  34.797  0.00  0.00    -0.298 OA
ATOM     23  C8  LG1 d5015      31.249  23.815  33.689  0.00  0.00     0.091 C 
ENDBRANCH   4  21
TORSDOF 1
ENDMDL
MODEL 3
REMARK VINA RESULT:    -5.194      3.657      5.418
REMARK INTER + INTRA:          -5.599
REMARK INTER:                  -5.397
REMARK INTRA:                  -0.203
REMARK UNBOUND:                -0.101
REMARK  1 active torsions:
REMARK  status: ('A' for Active; 'I' for Inactive)
REMARK    1  A    between atoms: C7_7  and  C4_4 
ROOT
ATOM      1  C1  LG1 d5015      26.552  23.784  31.140  0.00  0.00    -0.004 C 
ATOM      2  C2  LG1 d5015      26.059  25.105  30.539  0.00  0.00    -0.001 C 
ATOM      3  C3  LG1 d5015      26.060  25.102  28.965  0.00  0.00    -0.030 C 
ATOM      4  C4  LG1 d5015      25.440  26.520  28.729  0.00  0.00     0.063 C 
ATOM      5  C5  LG1 d5015      24.331  26.667  29.829  0.00  0.00     0.013 C 
ATOM      6  C6  LG1 d5015      24.635  25.577  30.920  0.00  0.00     0.006 C 
ATOM      7  C9  LG1 d5015      25.124  24.006  28.344  0.00  0.00     0.016 C 
ATOM      8  C10 LG1 d5015      27.536  24.933  28.543  0.00  0.00     0.011 C 
ATOM      9  C11 LG1 d5015      28.139  23.622  29.122  0.00  0.00     0.007 C 
ATOM     10  C12 LG1 d5015      28.026  23.558  30.667  0.00  0.00     0.002 C 
ATOM     11  C13 LG1 d5015      28.655  22.233  31.237  0.00  0.00    -0.016 C 
ATOM     12  C14 LG1 d5015      28.486  22.231  32.810  0.00  0.00    -0.068 C 
ATOM     13  C15 LG1 d5015      29.460  21.935  33.652  0.00  0.00     0.053 C 
ATOM     14  C16 LG1 d5015      30.753  21.459  33.186  0.00  0.00     0.149 C 
ATOM     15  C17 LG1 d5015      30.981  21.197  31.700  0.00  0.00     0.084 C 
ATOM     16  C18 LG1 d5015      30.162  22.212  30.865  0.00  0.00     0.022 C 
ATOM     17  O2  LG1 d5015      31.657  21.193  33.998  0.00  0.00    -0.293 OA
ATOM     18  C19 LG1 d5015      27.126  22.626  33.377  0.00  0.00     0.035 C 
ATOM     19  C20 LG1 d5015      26.546  23.876  32.687  0.00  0.00     0.010 C 
ATOM     20  C21 LG1 d5015      27.922  20.940  30.710  0.00  0.00     0.020 C 
ENDROOT
BRANCH   4  21
ATOM     21  C7  LG1 d5015      24.970  26.789  27.289  0.00  0.00     0.128 C 
ATOM     22  O1  LG1 d5015      25.779  26.877  26.391  0.00  0.00    -0.298 OA
ATOM     23  C8  LG1 d5015      23.515  26.931  27.007  0.00  0.00     0.091 C 
ENDBRANCH   4  21
TORSDOF 1
ENDMDL
MODEL 4
REMARK VINA RESULT:    -4.984      1.790      3.096
REMARK INTER + INTRA:          -5.377
REMARK INTER:                  -5.208
REMARK INTRA:                  -0.169
REMARK UNBOUND:                -0.101
REMARK  1 active torsions:
REMARK  status: ('A' for Active; 'I' for Inactive)
REMARK    1  A    between atoms: C7_7  and  C4_4 
ROOT
ATOM      1  C1  LG1 d5015      26.604  22.468  31.201  0.00  0.00    -0.004 C 
ATOM      2  C2  LG1 d5015      26.055  22.671  29.785  0.00  0.00    -0.001 C 
ATOM      3  C3  LG1 d5015      26.096  21.358  28.917  0.00  0.00    -0.030 C 
ATOM      4  C4  LG1 d5015      25.405  21.911  27.625  0.00  0.00     0.063 C 
ATOM      5  C5  LG1 d5015      24.262  22.851  28.147  0.00  0.00     0.013 C 
ATOM      6  C6  LG1 d5015      24.598  23.174  29.648  0.00  0.00     0.006 C 
ATOM      7  C9  LG1 d5015      25.237  20.189  29.515  0.00  0.00     0.016 C 
ATOM      8  C10 LG1 d5015      27.590  20.989  28.777  0.00  0.00     0.011 C 
ATOM      9  C11 LG1 d5015      28.248  20.780  30.169  0.00  0.00     0.007 C 
ATOM     10  C12 LG1 d5015      28.100  22.026  31.081  0.00  0.00     0.002 C 
ATOM     11  C13 LG1 d5015      28.786  21.802  32.480  0.00  0.00    -0.016 C 
ATOM     12  C14 LG1 d5015      28.577  23.103  33.357  0.00  0.00    -0.068 C 
ATOM     13  C15 LG1 d5015      29.544  23.690  34.038  0.00  0.00     0.053 C 
ATOM     14  C16 LG1 d5015      30.873  23.107  34.135  0.00  0.00     0.149 C 
ATOM     15  C17 LG1 d5015      31.153  21.737  33.524  0.00  0.00     0.084 C 
ATOM     16  C18 LG1 d5015      30.301  21.559  32.244  0.00  0.00     0.022 C 
ATOM     17  O2  LG1 d5015      31.769  23.683  34.778  0.00  0.00    -0.293 OA
ATOM     18  C19 LG1 d5015      27.184  23.722  33.384  0.00  0.00     0.035 C 
ATOM     19  C20 LG1 d5015      26.554  23.807  31.980  0.00  0.00     0.010 C 
ATOM     20  C21 LG1 d5015      28.139  20.613  33.288  0.00  0.00     0.020 C 
ENDROOT
BRANCH   4  21
ATOM     21  C7  LG1 d5015      24.958  20.836  26.620  0.00  0.00     0.128 C 
ATOM     22  O1  LG1 d5015      25.767  20.059  26.160  0.00  0.00    -0.298 OA
ATOM     23  C8  LG1 d5015      23.525  20.753  26.224  0.00  0.00     0.091 C 
ENDBRANCH   4  21
TORSDOF 1
ENDMDL
MODEL 5
REMARK VINA RESULT:    -4.903      1.568      7.008
REMARK INTER + INTRA:          -5.291
REMARK INTER:                  -5.189
REMARK INTRA:                  -0.101
REMARK UNBOUND:                -0.101
REMARK  1 active torsions:
REMARK  status: ('A' for Active; 'I' for Inactive)
REMARK    1  A    between atoms: C7_7  and  C4_4 
ROOT
ATOM      1  C1  LG1 d5015      28.214  20.843  30.380  0.00  0.00    -0.004 C 
ATOM      2  C2  LG1 d5015      29.238  21.827  30.957  0.00  0.00    -0.001 C 
ATOM      3  C3  LG1 d5015      28.867  22.321  32.405  0.00  0.00    -0.030 C 
ATOM      4  C4  LG1 d5015      30.131  23.201  32.682  0.00  0.00     0.063 C 
ATOM      5  C5  LG1 d5015      31.329  22.396  32.067  0.00  0.00     0.013 C 
ATOM      6  C6  LG1 d5015      30.703  21.343  31.082  0.00  0.00     0.006 C 
ATOM      7  C9  LG1 d5015      28.789  21.160  33.458  0.00  0.00     0.016 C 
ATOM      8  C10 LG1 d5015      27.531  23.084  32.262  0.00  0.00     0.011 C 
ATOM      9  C11 LG1 d5015      26.424  22.173  31.663  0.00  0.00     0.007 C 
ATOM     10  C12 LG1 d5015      26.835  21.576  30.291  0.00  0.00     0.002 C 
ATOM     11  C13 LG1 d5015      25.697  20.670  29.692  0.00  0.00    -0.016 C 
ATOM     12  C14 LG1 d5015      26.194  20.085  28.308  0.00  0.00    -0.068 C 
ATOM     13  C15 LG1 d5015      25.467  20.089  27.206  0.00  0.00     0.053 C 
ATOM     14  C16 LG1 d5015      24.080  20.529  27.210  0.00  0.00     0.149 C 
ATOM     15  C17 LG1 d5015      23.400  20.907  28.522  0.00  0.00     0.084 C 
ATOM     16  C18 LG1 d5015      24.439  21.552  29.474  0.00  0.00     0.022 C 
ATOM     17  O2  LG1 d5015      23.417  20.530  26.157  0.00  0.00    -0.293 OA
ATOM     18  C19 LG1 d5015      27.608  19.516  28.248  0.00  0.00     0.035 C 
ATOM     19  C20 LG1 d5015      28.636  20.426  28.948  0.00  0.00     0.010 C 
ATOM     20  C21 LG1 d5015      25.368  19.428  30.606  0.00  0.00     0.020 C 
ENDROOT
BRANCH   4  21
ATOM     21  C7  LG1 d5015      30.315  23.624  34.149  0.00  0.00     0.128 C 
ATOM     22  O1  LG1 d5015      29.398  24.138  34.754  0.00  0.00    -0.298 OA
ATOM     23  C8  LG1 d5015      31.623  23.391  34.822  0.00  0.00     0.091 C 
ENDBRANCH   4  21
TORSDOF 1
ENDMDL
