REMARK INTER + INTRA:          -4.664
REMARK INTER:                  -4.518
REMARK INTRA:                  -0.146
REMARK UNBOUND:                -0.141
REMARK  1 active torsions:
REMARK  status: ('A' for Active; 'I' for Inactive)
REMARK    1  A    between atoms: C7_7  and  C4_4 
ROOT
ATOM      1  C1  LG1 d5015      26.897  20.592  31.973  0.00  0.00    -0.004 C 
ATOM      2  C2  LG1 d5015      27.688  20.441  30.669  0.00  0.00    -0.001 C 
ATOM      3  C3  LG1 d5015      26.764  20.316  29.401  0.00  0.00    -0.030 C 
ATOM      4  C4  LG1 d5015      27.878  20.269  28.303  0.00  0.00     0.063 C 
ATOM      5  C5  LG1 d5015      28.960  21.300  28.778  0.00  0.00     0.013 C 
ATOM      6  C6  LG1 d5015      28.687  21.566  30.303  0.00  0.00     0.006 C 
ATOM      7  C9  LG1 d5015      25.848  21.570  29.171  0.00  0.00     0.016 C 
ATOM      8  C10 LG1 d5015      25.953  19.015  29.595  0.00  0.00     0.011 C 
ATOM      9  C11 LG1 d5015      25.125  19.060  30.909  0.00  0.00     0.007 C 
ATOM     10  C12 LG1 d5015      26.015  19.313  32.154  0.00  0.00     0.002 C 
ATOM     11  C13 LG1 d5015      25.163  19.340  33.477  0.00  0.00    -0.016 C 
ATOM     12  C14 LG1 d5015      26.133  19.620  34.696  0.00  0.00    -0.068 C 
ATOM     13  C15 LG1 d5015      26.115  18.929  35.821  0.00  0.00     0.053 C 
ATOM     14  C16 LG1 d5015      25.102  17.918  36.079  0.00  0.00     0.149 C 
ATOM     15  C17 LG1 d5015      23.967  17.700  35.083  0.00  0.00     0.084 C 
ATOM     16  C18 LG1 d5015      24.486  17.954  33.646  0.00  0.00     0.022 C 
ATOM     17  O2  LG1 d5015      25.110  17.275  37.144  0.00  0.00    -0.293 OA
ATOM     18  C19 LG1 d5015      27.164  20.733  34.538  0.00  0.00     0.035 C 
ATOM     19  C20 LG1 d5015      27.875  20.683  33.172  0.00  0.00     0.010 C 
ATOM     20  C21 LG1 d5015      24.094  20.499  33.485  0.00  0.00     0.020 C 
ENDROOT
BRANCH   4  21
ATOM     21  C7  LG1 d5015      27.376  20.467  26.863  0.00  0.00     0.128 C 
ATOM     22  O1  LG1 d5015      27.530  21.532  26.305  0.00  0.00    -0.298 OA
ATOM     23  C8  LG1 d5015      26.708  19.339  26.157  0.00  0.00     0.091 C 
ENDBRANCH   4  21
TORSDOF 1
ENDMDL
