REMARK INTER + INTRA:          -5.717
REMARK INTER:                  -5.658
REMARK INTRA:                  -0.060
REMARK UNBOUND:                -0.037
REMARK  1 active torsions:
REMARK  status: ('A' for Active; 'I' for Inactive)
REMARK    1  A    between atoms: C7_7  and  C4_4 
ROOT
ATOM      1  C1  LG1 d5015      26.682  20.522  31.432  0.00  0.00    -0.004 C 
ATOM      2  C2  LG1 d5015      27.663  20.810  32.574  0.00  0.00    -0.001 C 
ATOM      3  C3  LG1 d5015      28.413  22.184  32.407  0.00  0.00    -0.030 C 
ATOM      4  C4  LG1 d5015      29.224  22.171  33.745  0.00  0.00     0.063 C 
ATOM      5  C5  LG1 d5015      28.239  21.576  34.812  0.00  0.00     0.013 C 
ATOM      6  C6  LG1 d5015      27.093  20.858  34.012  0.00  0.00     0.006 C 
ATOM      7  C9  LG1 d5015      27.448  23.421  32.387  0.00  0.00     0.016 C 
ATOM      8  C10 LG1 d5015      29.245  22.058  31.112  0.00  0.00     0.011 C 
ATOM      9  C11 LG1 d5015      28.338  21.744  29.890  0.00  0.00     0.007 C 
ATOM     10  C12 LG1 d5015      27.497  20.459  30.098  0.00  0.00     0.002 C 
ATOM     11  C13 LG1 d5015      26.597  20.148  28.846  0.00  0.00    -0.016 C 
ATOM     12  C14 LG1 d5015      25.758  18.839  29.139  0.00  0.00    -0.068 C 
ATOM     13  C15 LG1 d5015      25.640  17.837  28.287  0.00  0.00     0.053 C 
ATOM     14  C16 LG1 d5015      26.181  17.914  26.939  0.00  0.00     0.149 C 
ATOM     15  C17 LG1 d5015      26.820  19.208  26.444  0.00  0.00     0.084 C 
ATOM     16  C18 LG1 d5015      27.527  19.919  27.625  0.00  0.00     0.022 C 
ATOM     17  O2  LG1 d5015      26.064  16.954  26.157  0.00  0.00    -0.293 OA
ATOM     18  C19 LG1 d5015      25.078  18.725  30.499  0.00  0.00     0.035 C 
ATOM     19  C20 LG1 d5015      26.006  19.145  31.655  0.00  0.00     0.010 C 
ATOM     20  C21 LG1 d5015      25.549  21.290  28.554  0.00  0.00     0.020 C 
ENDROOT
BRANCH   4  21
ATOM     21  C7  LG1 d5015      29.865  23.516  34.127  0.00  0.00     0.128 C 
ATOM     22  O1  LG1 d5015      29.246  24.319  34.791  0.00  0.00    -0.298 OA
ATOM     23  C8  LG1 d5015      31.253  23.820  33.681  0.00  0.00     0.091 C 
ENDBRANCH   4  21
TORSDOF 1
ENDMDL
