REMARK INTER + INTRA:          -5.727
REMARK INTER:                  -5.672
REMARK INTRA:                  -0.056
REMARK UNBOUND:                -0.141
REMARK  1 active torsions:
REMARK  status: ('A' for Active; 'I' for Inactive)
REMARK    1  A    between atoms: C7_7  and  C4_4 
ROOT
ATOM      1  C1  LG1 d5015      26.676  20.511  31.433  0.00  0.00    -0.004 C 
ATOM      2  C2  LG1 d5015      27.655  20.807  32.574  0.00  0.00    -0.001 C 
ATOM      3  C3  LG1 d5015      28.392  22.188  32.408  0.00  0.00    -0.030 C 
ATOM      4  C4  LG1 d5015      29.204  22.181  33.746  0.00  0.00     0.063 C 
ATOM      5  C5  LG1 d5015      28.224  21.579  34.812  0.00  0.00     0.013 C 
ATOM      6  C6  LG1 d5015      27.084  20.850  34.012  0.00  0.00     0.006 C 
ATOM      7  C9  LG1 d5015      27.417  23.417  32.387  0.00  0.00     0.016 C 
ATOM      8  C10 LG1 d5015      29.226  22.069  31.112  0.00  0.00     0.011 C 
ATOM      9  C11 LG1 d5015      28.322  21.747  29.890  0.00  0.00     0.007 C 
ATOM     10  C12 LG1 d5015      27.491  20.454  30.099  0.00  0.00     0.002 C 
ATOM     11  C13 LG1 d5015      26.594  20.136  28.846  0.00  0.00    -0.016 C 
ATOM     12  C14 LG1 d5015      25.767  18.819  29.140  0.00  0.00    -0.068 C 
ATOM     13  C15 LG1 d5015      25.658  17.816  28.288  0.00  0.00     0.053 C 
ATOM     14  C16 LG1 d5015      26.199  17.898  26.940  0.00  0.00     0.149 C 
ATOM     15  C17 LG1 d5015      26.826  19.198  26.445  0.00  0.00     0.084 C 
ATOM     16  C18 LG1 d5015      27.527  19.915  27.625  0.00  0.00     0.022 C 
ATOM     17  O2  LG1 d5015      26.089  16.937  26.158  0.00  0.00    -0.293 OA
ATOM     18  C19 LG1 d5015      25.088  18.699  30.500  0.00  0.00     0.035 C 
ATOM     19  C20 LG1 d5015      26.012  19.128  31.656  0.00  0.00     0.010 C 
ATOM     20  C21 LG1 d5015      25.537  21.269  28.555  0.00  0.00     0.020 C 
ENDROOT
BRANCH   4  21
ATOM     21  C7  LG1 d5015      29.833  23.532  34.127  0.00  0.00     0.128 C 
ATOM     22  O1  LG1 d5015      29.205  24.333  34.787  0.00  0.00    -0.298 OA
ATOM     23  C8  LG1 d5015      31.220  23.846  33.688  0.00  0.00     0.091 C 
ENDBRANCH   4  21
TORSDOF 1
ENDMDL
