REMARK INTER + INTRA:          -5.280
REMARK INTER:                  -5.229
REMARK INTRA:                  -0.051
REMARK UNBOUND:                -0.152
REMARK  1 active torsions:
REMARK  status: ('A' for Active; 'I' for Inactive)
REMARK    1  A    between atoms: C7_7  and  C4_4 
ROOT
ATOM      1  C1  LG1 d5015      28.163  20.931  30.489  0.00  0.00    -0.004 C 
ATOM      2  C2  LG1 d5015      29.212  21.886  31.068  0.00  0.00    -0.001 C 
ATOM      3  C3  LG1 d5015      28.827  22.430  32.494  0.00  0.00    -0.030 C 
ATOM      4  C4  LG1 d5015      30.119  23.265  32.782  0.00  0.00     0.063 C 
ATOM      5  C5  LG1 d5015      31.298  22.397  32.216  0.00  0.00     0.013 C 
ATOM      6  C6  LG1 d5015      30.652  21.347  31.241  0.00  0.00     0.006 C 
ATOM      7  C9  LG1 d5015      28.677  21.299  33.572  0.00  0.00     0.016 C 
ATOM      8  C10 LG1 d5015      27.528  23.244  32.300  0.00  0.00     0.011 C 
ATOM      9  C11 LG1 d5015      26.399  22.363  31.695  0.00  0.00     0.007 C 
ATOM     10  C12 LG1 d5015      26.817  21.717  30.349  0.00  0.00     0.002 C 
ATOM     11  C13 LG1 d5015      25.658  20.843  29.744  0.00  0.00    -0.016 C 
ATOM     12  C14 LG1 d5015      26.163  20.204  28.387  0.00  0.00    -0.068 C 
ATOM     13  C15 LG1 d5015      25.463  20.211  27.267  0.00  0.00     0.053 C 
ATOM     14  C16 LG1 d5015      24.096  20.706  27.225  0.00  0.00     0.149 C 
ATOM     15  C17 LG1 d5015      23.401  21.144  28.512  0.00  0.00     0.084 C 
ATOM     16  C18 LG1 d5015      24.442  21.769  29.473  0.00  0.00     0.022 C 
ATOM     17  O2  LG1 d5015      23.459  20.709  26.157  0.00  0.00    -0.293 OA
ATOM     18  C19 LG1 d5015      27.553  19.577  28.375  0.00  0.00     0.035 C 
ATOM     19  C20 LG1 d5015      28.601  20.462  29.078  0.00  0.00     0.010 C 
ATOM     20  C21 LG1 d5015      25.256  19.638  30.678  0.00  0.00     0.020 C 
ENDROOT
BRANCH   4  21
ATOM     21  C7  LG1 d5015      30.285  23.716  34.243  0.00  0.00     0.128 C 
ATOM     22  O1  LG1 d5015      29.351  24.207  34.840  0.00  0.00    -0.298 OA
ATOM     23  C8  LG1 d5015      31.600  23.538  34.920  0.00  0.00     0.091 C 
ENDBRANCH   4  21
TORSDOF 1
ENDMDL
