REMARK INTER + INTRA:          -5.590
REMARK INTER:                  -5.385
REMARK INTRA:                  -0.205
REMARK UNBOUND:                -0.152
REMARK  1 active torsions:
REMARK  status: ('A' for Active; 'I' for Inactive)
REMARK    1  A    between atoms: C7_7  and  C4_4 
ROOT
ATOM      1  C1  LG1 d5015      26.562  23.765  31.082  0.00  0.00    -0.004 C 
ATOM      2  C2  LG1 d5015      26.077  25.081  30.465  0.00  0.00    -0.001 C 
ATOM      3  C3  LG1 d5015      26.100  25.068  28.891  0.00  0.00    -0.030 C 
ATOM      4  C4  LG1 d5015      25.482  26.483  28.636  0.00  0.00     0.063 C 
ATOM      5  C5  LG1 d5015      24.357  26.636  29.720  0.00  0.00     0.013 C 
ATOM      6  C6  LG1 d5015      24.647  25.554  30.822  0.00  0.00     0.006 C 
ATOM      7  C9  LG1 d5015      25.174  23.967  28.265  0.00  0.00     0.016 C 
ATOM      8  C10 LG1 d5015      27.582  24.897  28.491  0.00  0.00     0.011 C 
ATOM      9  C11 LG1 d5015      28.178  23.591  29.088  0.00  0.00     0.007 C 
ATOM     10  C12 LG1 d5015      28.043  23.537  30.632  0.00  0.00     0.002 C 
ATOM     11  C13 LG1 d5015      28.665  22.217  31.219  0.00  0.00    -0.016 C 
ATOM     12  C14 LG1 d5015      28.473  22.225  32.790  0.00  0.00    -0.068 C 
ATOM     13  C15 LG1 d5015      29.435  21.936  33.648  0.00  0.00     0.053 C 
ATOM     14  C16 LG1 d5015      30.736  21.458  33.203  0.00  0.00     0.149 C 
ATOM     15  C17 LG1 d5015      30.986  21.187  31.723  0.00  0.00     0.084 C 
ATOM     16  C18 LG1 d5015      30.177  22.195  30.870  0.00  0.00     0.022 C 
ATOM     17  O2  LG1 d5015      31.628  21.198  34.030  0.00  0.00    -0.293 OA
ATOM     18  C19 LG1 d5015      27.106  22.623  33.334  0.00  0.00     0.035 C 
ATOM     19  C20 LG1 d5015      26.534  23.868  32.628  0.00  0.00     0.010 C 
ATOM     20  C21 LG1 d5015      27.941  20.919  30.691  0.00  0.00     0.020 C 
ENDROOT
BRANCH   4  21
ATOM     21  C7  LG1 d5015      25.033  26.741  27.189  0.00  0.00     0.128 C 
ATOM     22  O1  LG1 d5015      25.854  26.818  26.299  0.00  0.00    -0.298 OA
ATOM     23  C8  LG1 d5015      23.582  26.888  26.887  0.00  0.00     0.091 C 
ENDBRANCH   4  21
TORSDOF 1
ENDMDL
