MODEL 1
REMARK VINA RESULT:    -5.269      0.000      0.000
REMARK INTER + INTRA:          -5.707
REMARK INTER:                  -5.652
REMARK INTRA:                  -0.056
REMARK UNBOUND:                -0.131
REMARK  1 active torsions:
REMARK  status: ('A' for Active; 'I' for Inactive)
REMARK    1  A    between atoms: C7_7  and  C4_4 
ROOT
ATOM      1  C1  LG1 d5015      26.683  20.519  31.434  0.00  0.00    -0.004 C 
ATOM      2  C2  LG1 d5015      27.671  20.808  32.570  0.00  0.00    -0.001 C 
ATOM      3  C3  LG1 d5015      28.416  22.184  32.401  0.00  0.00    -0.030 C 
ATOM      4  C4  LG1 d5015      29.236  22.171  33.734  0.00  0.00     0.063 C 
ATOM      5  C5  LG1 d5015      28.260  21.572  34.806  0.00  0.00     0.013 C 
ATOM      6  C6  LG1 d5015      27.110  20.852  34.012  0.00  0.00     0.006 C 
ATOM      7  C9  LG1 d5015      27.448  23.419  32.389  0.00  0.00     0.016 C 
ATOM      8  C10 LG1 d5015      29.241  22.062  31.100  0.00  0.00     0.011 C 
ATOM      9  C11 LG1 d5015      28.327  21.748  29.883  0.00  0.00     0.007 C 
ATOM     10  C12 LG1 d5015      27.490  20.460  30.095  0.00  0.00     0.002 C 
ATOM     11  C13 LG1 d5015      26.583  20.149  28.848  0.00  0.00    -0.016 C 
ATOM     12  C14 LG1 d5015      25.749  18.837  29.145  0.00  0.00    -0.068 C 
ATOM     13  C15 LG1 d5015      25.629  17.836  28.292  0.00  0.00     0.053 C 
ATOM     14  C16 LG1 d5015      26.161  17.916  26.941  0.00  0.00     0.149 C 
ATOM     15  C17 LG1 d5015      26.793  19.213  26.444  0.00  0.00     0.084 C 
ATOM     16  C18 LG1 d5015      27.506  19.924  27.620  0.00  0.00     0.022 C 
ATOM     17  O2  LG1 d5015      26.041  16.957  26.158  0.00  0.00    -0.293 OA
ATOM     18  C19 LG1 d5015      25.078  18.719  30.509  0.00  0.00     0.035 C 
ATOM     19  C20 LG1 d5015      26.013  19.140  31.660  0.00  0.00     0.010 C 
ATOM     20  C21 LG1 d5015      25.530  21.289  28.565  0.00  0.00     0.020 C 
ENDROOT
BRANCH   4  21
ATOM     21  C7  LG1 d5015      29.876  23.517  34.113  0.00  0.00     0.128 C 
ATOM     22  O1  LG1 d5015      29.256  24.321  34.777  0.00  0.00    -0.298 OA
ATOM     23  C8  LG1 d5015      31.263  23.822  33.667  0.00  0.00     0.091 C 
ENDBRANCH   4  21
TORSDOF 1
ENDMDL
MODEL 2
REMARK VINA RESULT:    -5.166      3.706      6.575
REMARK INTER + INTRA:          -5.598
REMARK INTER:                  -5.394
REMARK INTRA:                  -0.204
REMARK UNBOUND:                -0.131
REMARK  1 active torsions:
REMARK  status: ('A' for Active; 'I' for Inactive)
REMARK    1  A    between atoms: C7_7  and  C4_4 
ROOT
ATOM      1  C1  LG1 d5015      26.538  23.864  31.132  0.00  0.00    -0.004 C 
ATOM      2  C2  LG1 d5015      26.061  25.185  30.518  0.00  0.00    -0.001 C 
ATOM      3  C3  LG1 d5015      26.020  25.151  28.945  0.00  0.00    -0.030 C 
ATOM      4  C4  LG1 d5015      25.427  26.578  28.696  0.00  0.00     0.063 C 
ATOM      5  C5  LG1 d5015      24.350  26.772  29.822  0.00  0.00     0.013 C 
ATOM      6  C6  LG1 d5015      24.658  25.697  30.926  0.00  0.00     0.006 C 
ATOM      7  C9  LG1 d5015      25.043  24.065  28.370  0.00  0.00     0.016 C 
ATOM      8  C10 LG1 d5015      27.481  24.939  28.488  0.00  0.00     0.011 C 
ATOM      9  C11 LG1 d5015      28.068  23.627  29.078  0.00  0.00     0.007 C 
ATOM     10  C12 LG1 d5015      27.994  23.595  30.626  0.00  0.00     0.002 C 
ATOM     11  C13 LG1 d5015      28.607  22.267  31.206  0.00  0.00    -0.016 C 
ATOM     12  C14 LG1 d5015      28.480  22.299  32.783  0.00  0.00    -0.068 C 
ATOM     13  C15 LG1 d5015      29.468  21.996  33.605  0.00  0.00     0.053 C 
ATOM     14  C16 LG1 d5015      30.738  21.482  33.116  0.00  0.00     0.149 C 
ATOM     15  C17 LG1 d5015      30.921  21.186  31.630  0.00  0.00     0.084 C 
ATOM     16  C18 LG1 d5015      30.103  22.204  30.797  0.00  0.00     0.022 C 
ATOM     17  O2  LG1 d5015      31.656  21.211  33.910  0.00  0.00    -0.293 OA
ATOM     18  C19 LG1 d5015      27.145  22.737  33.376  0.00  0.00     0.035 C 
ATOM     19  C20 LG1 d5015      26.575  23.986  32.677  0.00  0.00     0.010 C 
ATOM     20  C21 LG1 d5015      27.832  20.981  30.724  0.00  0.00     0.020 C 
ENDROOT
BRANCH   4  21
ATOM     21  C7  LG1 d5015      24.926  26.830  27.264  0.00  0.00     0.128 C 
ATOM     22  O1  LG1 d5015      25.712  26.870  26.342  0.00  0.00    -0.298 OA
ATOM     23  C8  LG1 d5015      23.469  27.016  27.019  0.00  0.00     0.091 C 
ENDBRANCH   4  21
TORSDOF 1
ENDMDL
MODEL 3
REMARK VINA RESULT:    -4.278      2.722      6.363
REMARK INTER + INTRA:          -4.659
REMARK INTER:                  -4.517
REMARK INTRA:                  -0.142
REMARK UNBOUND:                -0.131
REMARK  1 active torsions:
REMARK  status: ('A' for Active; 'I' for Inactive)
REMARK    1  A    between atoms: C7_7  and  C4_4 
ROOT
ATOM      1  C1  LG1 d5015      26.895  20.600  31.994  0.00  0.00    -0.004 C 
ATOM      2  C2  LG1 d5015      27.694  20.459  30.694  0.00  0.00    -0.001 C 
ATOM      3  C3  LG1 d5015      26.777  20.331  29.420  0.00  0.00    -0.030 C 
ATOM      4  C4  LG1 d5015      27.898  20.295  28.328  0.00  0.00     0.063 C 
ATOM      5  C5  LG1 d5015      28.970  21.333  28.813  0.00  0.00     0.013 C 
ATOM      6  C6  LG1 d5015      28.687  21.592  30.337  0.00  0.00     0.006 C 
ATOM      7  C9  LG1 d5015      25.854  21.579  29.189  0.00  0.00     0.016 C 
ATOM      8  C10 LG1 d5015      25.975  19.024  29.606  0.00  0.00     0.011 C 
ATOM      9  C11 LG1 d5015      25.140  19.059  30.916  0.00  0.00     0.007 C 
ATOM     10  C12 LG1 d5015      26.021  19.314  32.166  0.00  0.00     0.002 C 
ATOM     11  C13 LG1 d5015      25.162  19.331  33.484  0.00  0.00    -0.016 C 
ATOM     12  C14 LG1 d5015      26.123  19.614  34.709  0.00  0.00    -0.068 C 
ATOM     13  C15 LG1 d5015      26.104  18.918  35.832  0.00  0.00     0.053 C 
ATOM     14  C16 LG1 d5015      25.096  17.899  36.082  0.00  0.00     0.149 C 
ATOM     15  C17 LG1 d5015      23.968  17.677  35.079  0.00  0.00     0.084 C 
ATOM     16  C18 LG1 d5015      24.493  17.939  33.645  0.00  0.00     0.022 C 
ATOM     17  O2  LG1 d5015      25.104  17.253  37.144  0.00  0.00    -0.293 OA
ATOM     18  C19 LG1 d5015      27.147  20.734  34.561  0.00  0.00     0.035 C 
ATOM     19  C20 LG1 d5015      27.865  20.694  33.199  0.00  0.00     0.010 C 
ATOM     20  C21 LG1 d5015      24.084  20.482  33.491  0.00  0.00     0.020 C 
ENDROOT
BRANCH   4  21
ATOM     21  C7  LG1 d5015      27.402  20.495  26.886  0.00  0.00     0.128 C 
ATOM     22  O1  LG1 d5015      27.518  21.574  26.345  0.00  0.00    -0.298 OA
ATOM     23  C8  LG1 d5015      26.786  19.352  26.157  0.00  0.00     0.091 C 
ENDBRANCH   4  21
TORSDOF 1
ENDMDL
MODEL 4
REMARK VINA RESULT:    -3.985      4.087      6.267
REMARK INTER + INTRA:          -4.348
REMARK INTER:                  -4.218
REMARK INTRA:                  -0.131
REMARK UNBOUND:                -0.131
REMARK  1 active torsions:
REMARK  status: ('A' for Active; 'I' for Inactive)
REMARK    1  A    between atoms: C7_7  and  C4_4 
ROOT
ATOM      1  C1  LG1 d5015      26.580  23.080  28.468  0.00  0.00    -0.004 C 
ATOM      2  C2  LG1 d5015      26.701  21.745  29.211  0.00  0.00    -0.001 C 
ATOM      3  C3  LG1 d5015      26.291  21.846  30.727  0.00  0.00    -0.030 C 
ATOM      4  C4  LG1 d5015      26.452  20.339  31.114  0.00  0.00     0.063 C 
ATOM      5  C5  LG1 d5015      25.907  19.541  29.878  0.00  0.00     0.013 C 
ATOM      6  C6  LG1 d5015      25.878  20.549  28.672  0.00  0.00     0.006 C 
ATOM      7  C9  LG1 d5015      24.801  22.290  30.941  0.00  0.00     0.016 C 
ATOM      8  C10 LG1 d5015      27.300  22.820  31.375  0.00  0.00     0.011 C 
ATOM      9  C11 LG1 d5015      27.269  24.208  30.675  0.00  0.00     0.007 C 
ATOM     10  C12 LG1 d5015      27.545  24.103  29.153  0.00  0.00     0.002 C 
ATOM     11  C13 LG1 d5015      27.526  25.518  28.464  0.00  0.00    -0.016 C 
ATOM     12  C14 LG1 d5015      27.796  25.328  26.916  0.00  0.00    -0.068 C 
ATOM     13  C15 LG1 d5015      28.658  26.055  26.228  0.00  0.00     0.053 C 
ATOM     14  C16 LG1 d5015      29.349  27.187  26.824  0.00  0.00     0.149 C 
ATOM     15  C17 LG1 d5015      29.015  27.624  28.248  0.00  0.00     0.084 C 
ATOM     16  C18 LG1 d5015      28.650  26.381  29.096  0.00  0.00     0.022 C 
ATOM     17  O2  LG1 d5015      30.162  27.852  26.157  0.00  0.00    -0.293 OA
ATOM     18  C19 LG1 d5015      27.035  24.220  26.195  0.00  0.00     0.035 C 
ATOM     19  C20 LG1 d5015      27.025  22.903  26.994  0.00  0.00     0.010 C 
ATOM     20  C21 LG1 d5015      26.125  26.231  28.586  0.00  0.00     0.020 C 
ENDROOT
BRANCH   4  21
ATOM     21  C7  LG1 d5015      25.832  19.948  32.467  0.00  0.00     0.128 C 
ATOM     22  O1  LG1 d5015      24.731  19.442  32.509  0.00  0.00    -0.298 OA
ATOM     23  C8  LG1 d5015      26.598  20.188  33.721  0.00  0.00     0.091 C 
ENDBRANCH   4  21
TORSDOF 1
ENDMDL
