REMARK INTER + INTRA:          -4.804
REMARK INTER:                  -4.599
REMARK INTRA:                  -0.205
REMARK UNBOUND:                -0.205
REMARK  1 active torsions:
REMARK  status: ('A' for Active; 'I' for Inactive)
REMARK    1  A    between atoms: C1_1  and  N1_10 
ROOT
ATOM      1  C1  LG1 d5015      28.178  22.084  30.540  0.00  0.00     0.056 A 
ATOM      2  C2  LG1 d5015      27.960  21.395  29.347  0.00  0.00    -0.033 A 
ATOM      3  C3  LG1 d5015      29.021  20.745  28.714  0.00  0.00     0.028 A 
ATOM      4  C4  LG1 d5015      30.298  20.785  29.274  0.00  0.00     0.012 A 
ATOM      5  C5  LG1 d5015      30.515  21.477  30.467  0.00  0.00     0.028 A 
ATOM      6  C6  LG1 d5015      29.455  22.126  31.098  0.00  0.00    -0.033 A 
ATOM      7  C7  LG1 d5015      29.719  22.858  32.375  0.00  0.00     0.050 C 
ATOM      8 BR1  LG1 d5015      31.734  19.907  28.415  0.00  0.00    -0.051 Br
ATOM      9  C8  LG1 d5015      26.603  21.332  28.724  0.00  0.00     0.050 C 
ENDROOT
BRANCH   1  10
ATOM     10  N1  LG1 d5015      27.087  22.752  31.192  0.00  0.00    -0.265 N 
ATOM     11  C11 LG1 d5015      26.252  22.150  32.134  0.00  0.00     0.148 C 
ATOM     12  S2  LG1 d5015      26.390  20.676  32.918  0.00  0.00    -0.052 SA
ATOM     13  S1  LG1 d5015      24.943  23.253  32.544  0.00  0.00    -0.090 SA
ATOM     14  C10 LG1 d5015      25.679  24.642  31.683  0.00  0.00     0.185 C 
ATOM     15  C9  LG1 d5015      26.811  24.088  30.868  0.00  0.00     0.239 C 
ATOM     16  O1  LG1 d5015      27.371  24.781  30.021  0.00  0.00    -0.272 OA
ENDBRANCH   1  10
TORSDOF 1
ENDMDL
