REMARK INTER + INTRA:          -6.623
REMARK INTER:                  -6.091
REMARK INTRA:                  -0.532
REMARK UNBOUND:                -0.532
REMARK  2 active torsions:
REMARK  status: ('A' for Active; 'I' for Inactive)
REMARK    1  A    between atoms: C1_1  and  N1_15 
REMARK    2  A    between atoms: C7_9  and  C4_4 
ROOT
ATOM      1  C1  LG1 d5015      27.831  23.228  30.491  0.00  0.00     0.141 A 
ATOM      2  C2  LG1 d5015      27.602  23.524  31.834  0.00  0.00     0.187 A 
ATOM      3  C3  LG1 d5015      28.499  23.086  32.808  0.00  0.00     0.175 A 
ATOM      4  C4  LG1 d5015      29.625  22.351  32.439  0.00  0.00     0.131 A 
ATOM      5  C5  LG1 d5015      29.855  22.053  31.096  0.00  0.00     0.175 A 
ATOM      6  C6  LG1 d5015      28.958  22.492  30.122  0.00  0.00     0.187 A 
ATOM      7  F1  LG1 d5015      29.192  22.199  28.835  0.00  0.00    -0.200 F 
ATOM      8  F2  LG1 d5015      30.935  21.347  30.732  0.00  0.00    -0.202 F 
ATOM      9  F6  LG1 d5015      28.269  23.377  34.097  0.00  0.00    -0.202 F 
ATOM     10  F7  LG1 d5015      26.523  24.230  32.203  0.00  0.00    -0.200 F 
ENDROOT
BRANCH   1  11
ATOM     11  N1  LG1 d5015      26.942  23.661  29.524  0.00  0.00    -0.232 N 
ATOM     12  N2  LG1 d5015      25.920  22.870  29.155  0.00  0.00    -0.172 NA
ATOM     13  C10 LG1 d5015      25.293  23.599  28.228  0.00  0.00     0.053 A 
ATOM     14  C9  LG1 d5015      25.910  24.845  28.006  0.00  0.00     0.055 A 
ATOM     15  C11 LG1 d5015      24.090  23.064  27.568  0.00  0.00     0.072 C 
ATOM     16  C8  LG1 d5015      26.981  24.854  28.866  0.00  0.00     0.035 A 
ATOM     17  C12 LG1 d5015      28.010  25.885  29.104  0.00  0.00     0.070 C 
ENDBRANCH   1  11
BRANCH   4  18
ATOM     18  C7  LG1 d5015      30.584  21.882  33.482  0.00  0.00     0.423 C 
ATOM     19  F4  LG1 d5015      29.991  21.189  34.498  0.00  0.00    -0.166 F 
ATOM     20  F3  LG1 d5015      31.267  22.895  34.092  0.00  0.00    -0.166 F 
ATOM     21  F5  LG1 d5015      31.540  21.047  32.979  0.00  0.00    -0.166 F 
ENDBRANCH   4  18
TORSDOF 2
ENDMDL
