REMARK INTER + INTRA:          -4.627
REMARK INTER:                  -4.459
REMARK INTRA:                  -0.169
REMARK UNBOUND:                -0.117
REMARK  1 active torsions:
REMARK  status: ('A' for Active; 'I' for Inactive)
REMARK    1  A    between atoms: C10_13  and  C11_14 
ROOT
ATOM      1  C1  LG1 d5015      28.587  20.970  30.594  0.00  0.00     0.018 C 
ATOM      2  C2  LG1 d5015      28.222  20.505  29.233  0.00  0.00     0.193 C 
ATOM      3  C3  LG1 d5015      26.829  20.030  29.101  0.00  0.00     0.049 A 
ATOM      4  C4  LG1 d5015      26.392  19.462  27.902  0.00  0.00     0.037 A 
ATOM      5  C5  LG1 d5015      25.059  19.073  27.767  0.00  0.00     0.012 A 
ATOM      6  C6  LG1 d5015      24.162  19.258  28.819  0.00  0.00     0.022 A 
ATOM      7  C7  LG1 d5015      24.598  19.829  30.016  0.00  0.00     0.039 A 
ATOM      8  C8  LG1 d5015      25.934  20.200  30.165  0.00  0.00     0.083 A 
ATOM      9  O1  LG1 d5015      26.290  20.770  31.358  0.00  0.00    -0.346 OA
ATOM     10  C9  LG1 d5015      27.665  20.560  31.696  0.00  0.00     0.218 C 
ATOM     11 BR1  LG1 d5015      24.469  18.274  26.157  0.00  0.00    -0.051 Br
ATOM     12  O2  LG1 d5015      28.996  20.504  28.286  0.00  0.00    -0.287 OA
ATOM     13  C10 LG1 d5015      29.693  21.706  30.762  0.00  0.00     0.025 C 
ENDROOT
BRANCH  13  14
ATOM     14  C11 LG1 d5015      30.147  22.213  32.022  0.00  0.00    -0.029 A 
ATOM     15  C14 LG1 d5015      29.777  23.446  32.509  0.00  0.00     0.061 A 
ATOM     16  S1  LG1 d5015      30.478  23.770  34.037  0.00  0.00    -0.113 SA
ATOM     17  C13 LG1 d5015      31.281  22.259  34.051  0.00  0.00     0.050 A 
ATOM     18  C12 LG1 d5015      31.018  21.524  32.915  0.00  0.00     0.019 A 
ENDBRANCH  13  14
TORSDOF 1
ENDMDL
