REMARK INTER + INTRA:          -4.696
REMARK INTER:                  -4.530
REMARK INTRA:                  -0.166
REMARK UNBOUND:                -0.128
REMARK  1 active torsions:
REMARK  status: ('A' for Active; 'I' for Inactive)
REMARK    1  A    between atoms: C10_13  and  C11_14 
ROOT
ATOM      1  C1  LG1 d5015      27.872  20.977  30.977  0.00  0.00     0.018 C 
ATOM      2  C2  LG1 d5015      26.762  20.136  30.464  0.00  0.00     0.193 C 
ATOM      3  C3  LG1 d5015      26.799  19.895  29.006  0.00  0.00     0.049 A 
ATOM      4  C4  LG1 d5015      25.752  19.214  28.382  0.00  0.00     0.037 A 
ATOM      5  C5  LG1 d5015      25.824  18.938  27.015  0.00  0.00     0.012 A 
ATOM      6  C6  LG1 d5015      26.941  19.332  26.276  0.00  0.00     0.022 A 
ATOM      7  C7  LG1 d5015      27.988  20.009  26.902  0.00  0.00     0.039 A 
ATOM      8  C8  LG1 d5015      27.912  20.307  28.262  0.00  0.00     0.083 A 
ATOM      9  O1  LG1 d5015      28.982  20.959  28.816  0.00  0.00    -0.346 OA
ATOM     10  C9  LG1 d5015      28.631  21.755  29.952  0.00  0.00     0.218 C 
ATOM     11 BR1  LG1 d5015      24.396  18.043  26.157  0.00  0.00    -0.051 Br
ATOM     12  O2  LG1 d5015      25.880  19.672  31.171  0.00  0.00    -0.287 OA
ATOM     13  C10 LG1 d5015      28.126  21.000  32.291  0.00  0.00     0.025 C 
ENDROOT
BRANCH  13  14
ATOM     14  C11 LG1 d5015      29.168  21.769  32.903  0.00  0.00    -0.029 A 
ATOM     15  C14 LG1 d5015      28.985  23.063  33.337  0.00  0.00     0.061 A 
ATOM     16  S1  LG1 d5015      30.410  23.716  34.026  0.00  0.00    -0.113 SA
ATOM     17  C13 LG1 d5015      31.276  22.267  33.745  0.00  0.00     0.050 A 
ATOM     18  C12 LG1 d5015      30.495  21.307  33.140  0.00  0.00     0.019 A 
ENDBRANCH  13  14
TORSDOF 1
ENDMDL
