REMARK INTER + INTRA:          -4.457
REMARK INTER:                  -4.289
REMARK INTRA:                  -0.168
REMARK UNBOUND:                -0.168
REMARK  1 active torsions:
REMARK  status: ('A' for Active; 'I' for Inactive)
REMARK    1  A    between atoms: C10_13  and  C11_14 
ROOT
ATOM      1  C1  LG1 d5015      26.270  20.021  29.757  0.00  0.00     0.018 C 
ATOM      2  C2  LG1 d5015      26.750  20.436  31.098  0.00  0.00     0.193 C 
ATOM      3  C3  LG1 d5015      28.157  20.887  31.132  0.00  0.00     0.049 A 
ATOM      4  C4  LG1 d5015      28.763  21.198  32.351  0.00  0.00     0.037 A 
ATOM      5  C5  LG1 d5015      30.073  21.680  32.369  0.00  0.00     0.012 A 
ATOM      6  C6  LG1 d5015      30.771  21.862  31.175  0.00  0.00     0.022 A 
ATOM      7  C7  LG1 d5015      30.163  21.554  29.957  0.00  0.00     0.039 A 
ATOM      8  C8  LG1 d5015      28.863  21.051  29.934  0.00  0.00     0.083 A 
ATOM      9  O1  LG1 d5015      28.321  20.787  28.704  0.00  0.00    -0.346 OA
ATOM     10  C9  LG1 d5015      27.328  19.756  28.735  0.00  0.00     0.218 C 
ATOM     11 BR1  LG1 d5015      30.911  22.074  34.018  0.00  0.00    -0.051 Br
ATOM     12  O2  LG1 d5015      26.055  20.414  32.104  0.00  0.00    -0.287 OA
ATOM     13  C10 LG1 d5015      24.954  19.902  29.537  0.00  0.00     0.025 C 
ENDROOT
BRANCH  13  14
ATOM     14  C11 LG1 d5015      24.371  19.510  28.289  0.00  0.00    -0.029 A 
ATOM     15  C14 LG1 d5015      24.100  18.200  27.969  0.00  0.00     0.061 A 
ATOM     16  S1  LG1 d5015      23.406  18.048  26.412  0.00  0.00    -0.113 SA
ATOM     17  C13 LG1 d5015      23.465  19.740  26.161  0.00  0.00     0.050 A 
ATOM     18  C12 LG1 d5015      24.002  20.403  27.242  0.00  0.00     0.019 A 
ENDBRANCH  13  14
TORSDOF 1
ENDMDL
