REMARK INTER + INTRA:          -4.539
REMARK INTER:                  -4.506
REMARK INTRA:                  -0.034
REMARK UNBOUND:                -0.168
REMARK  1 active torsions:
REMARK  status: ('A' for Active; 'I' for Inactive)
REMARK    1  A    between atoms: C10_13  and  C11_14 
ROOT
ATOM      1  C1  LG1 d5015      26.696  19.618  33.732  0.00  0.00     0.018 C 
ATOM      2  C2  LG1 d5015      26.470  19.984  32.312  0.00  0.00     0.193 C 
ATOM      3  C3  LG1 d5015      27.321  21.089  31.821  0.00  0.00     0.049 A 
ATOM      4  C4  LG1 d5015      27.129  21.604  30.538  0.00  0.00     0.037 A 
ATOM      5  C5  LG1 d5015      27.976  22.605  30.061  0.00  0.00     0.012 A 
ATOM      6  C6  LG1 d5015      29.017  23.084  30.857  0.00  0.00     0.022 A 
ATOM      7  C7  LG1 d5015      29.211  22.566  32.138  0.00  0.00     0.039 A 
ATOM      8  C8  LG1 d5015      28.354  21.581  32.629  0.00  0.00     0.083 A 
ATOM      9  O1  LG1 d5015      28.611  21.105  33.887  0.00  0.00    -0.346 OA
ATOM     10  C9  LG1 d5015      27.443  20.616  34.555  0.00  0.00     0.218 C 
ATOM     11 BR1  LG1 d5015      27.703  23.329  28.335  0.00  0.00    -0.051 Br
ATOM     12  O2  LG1 d5015      25.651  19.432  31.591  0.00  0.00    -0.287 OA
ATOM     13  C10 LG1 d5015      26.230  18.450  34.192  0.00  0.00     0.025 C 
ENDROOT
BRANCH  13  14
ATOM     14  C11 LG1 d5015      26.386  17.987  35.538  0.00  0.00    -0.029 A 
ATOM     15  C14 LG1 d5015      27.164  16.901  35.869  0.00  0.00     0.061 A 
ATOM     16  S1  LG1 d5015      27.153  16.592  37.552  0.00  0.00    -0.113 SA
ATOM     17  C13 LG1 d5015      26.106  17.914  37.844  0.00  0.00     0.050 A 
ATOM     18  C12 LG1 d5015      25.773  18.574  36.682  0.00  0.00     0.019 A 
ENDBRANCH  13  14
TORSDOF 1
ENDMDL
