REMARK INTER + INTRA:          -4.500
REMARK INTER:                  -4.297
REMARK INTRA:                  -0.203
REMARK UNBOUND:                -0.203
REMARK  1 active torsions:
REMARK  status: ('A' for Active; 'I' for Inactive)
REMARK    1  A    between atoms: C1_1  and  N1_10 
ROOT
ATOM      1  C1  LG1 d5015      28.271  22.190  30.181  0.00  0.00     0.056 A 
ATOM      2  C2  LG1 d5015      29.551  21.638  30.206  0.00  0.00    -0.033 A 
ATOM      3  C3  LG1 d5015      30.350  21.780  31.342  0.00  0.00     0.028 A 
ATOM      4  C4  LG1 d5015      29.868  22.472  32.452  0.00  0.00     0.012 A 
ATOM      5  C5  LG1 d5015      28.586  23.026  32.426  0.00  0.00     0.028 A 
ATOM      6  C6  LG1 d5015      27.789  22.884  31.291  0.00  0.00    -0.033 A 
ATOM      7  C7  LG1 d5015      26.422  23.487  31.294  0.00  0.00     0.050 C 
ATOM      8 BR1  LG1 d5015      30.950  22.664  33.989  0.00  0.00    -0.051 Br
ATOM      9  C8  LG1 d5015      30.095  20.889  29.033  0.00  0.00     0.050 C 
ENDROOT
BRANCH   1  10
ATOM     10  N1  LG1 d5015      27.449  22.044  29.013  0.00  0.00    -0.265 N 
ATOM     11  C11 LG1 d5015      26.578  20.976  28.798  0.00  0.00     0.148 C 
ATOM     12  S2  LG1 d5015      26.069  19.766  29.839  0.00  0.00    -0.052 SA
ATOM     13  S1  LG1 d5015      25.905  21.088  27.177  0.00  0.00    -0.090 SA
ATOM     14  C10 LG1 d5015      26.554  22.734  26.887  0.00  0.00     0.185 C 
ATOM     15  C9  LG1 d5015      27.519  23.013  28.002  0.00  0.00     0.239 C 
ATOM     16  O1  LG1 d5015      28.265  23.988  27.954  0.00  0.00    -0.272 OA
ENDBRANCH   1  10
TORSDOF 1
ENDMDL
