REMARK INTER + INTRA:          -4.659
REMARK INTER:                  -4.495
REMARK INTRA:                  -0.165
REMARK UNBOUND:                -0.168
REMARK  1 active torsions:
REMARK  status: ('A' for Active; 'I' for Inactive)
REMARK    1  A    between atoms: C10_13  and  C11_14 
ROOT
ATOM      1  C1  LG1 d5015      28.548  20.965  30.637  0.00  0.00     0.018 C 
ATOM      2  C2  LG1 d5015      28.206  20.460  29.284  0.00  0.00     0.193 C 
ATOM      3  C3  LG1 d5015      26.790  20.071  29.116  0.00  0.00     0.049 A 
ATOM      4  C4  LG1 d5015      26.364  19.476  27.926  0.00  0.00     0.037 A 
ATOM      5  C5  LG1 d5015      25.014  19.167  27.753  0.00  0.00     0.012 A 
ATOM      6  C6  LG1 d5015      24.091  19.458  28.758  0.00  0.00     0.022 A 
ATOM      7  C7  LG1 d5015      24.517  20.056  29.945  0.00  0.00     0.039 A 
ATOM      8  C8  LG1 d5015      25.868  20.348  30.133  0.00  0.00     0.083 A 
ATOM      9  O1  LG1 d5015      26.215  20.949  31.313  0.00  0.00    -0.346 OA
ATOM     10  C9  LG1 d5015      27.559  20.667  31.717  0.00  0.00     0.218 C 
ATOM     11 BR1  LG1 d5015      24.435  18.333  26.157  0.00  0.00    -0.051 Br
ATOM     12  O2  LG1 d5015      29.013  20.365  28.371  0.00  0.00    -0.287 OA
ATOM     13  C10 LG1 d5015      29.692  21.636  30.818  0.00  0.00     0.025 C 
ENDROOT
BRANCH  13  14
ATOM     14  C11 LG1 d5015      30.130  22.171  32.072  0.00  0.00    -0.029 A 
ATOM     15  C14 LG1 d5015      29.789  23.431  32.506  0.00  0.00     0.061 A 
ATOM     16  S1  LG1 d5015      30.461  23.786  34.040  0.00  0.00    -0.113 SA
ATOM     17  C13 LG1 d5015      31.212  22.251  34.128  0.00  0.00     0.050 A 
ATOM     18  C12 LG1 d5015      30.954  21.486  33.012  0.00  0.00     0.019 A 
ENDBRANCH  13  14
TORSDOF 1
ENDMDL
