REMARK INTER + INTRA:          -7.049
REMARK INTER:                  -6.528
REMARK INTRA:                  -0.521
REMARK UNBOUND:                -0.532
REMARK  2 active torsions:
REMARK  status: ('A' for Active; 'I' for Inactive)
REMARK    1  A    between atoms: C1_1  and  N1_15 
REMARK    2  A    between atoms: C7_9  and  C4_4 
ROOT
ATOM      1  C1  LG1 d5015      28.466  22.668  30.153  0.00  0.00     0.141 A 
ATOM      2  C2  LG1 d5015      28.047  23.282  31.334  0.00  0.00     0.187 A 
ATOM      3  C3  LG1 d5015      28.746  23.062  32.520  0.00  0.00     0.175 A 
ATOM      4  C4  LG1 d5015      29.863  22.227  32.527  0.00  0.00     0.131 A 
ATOM      5  C5  LG1 d5015      30.282  21.613  31.347  0.00  0.00     0.175 A 
ATOM      6  C6  LG1 d5015      29.584  21.834  30.161  0.00  0.00     0.187 A 
ATOM      7  F1  LG1 d5015      29.998  21.236  29.034  0.00  0.00    -0.200 F 
ATOM      8  F2  LG1 d5015      31.356  20.809  31.345  0.00  0.00    -0.202 F 
ATOM      9  F6  LG1 d5015      28.335  23.658  33.650  0.00  0.00    -0.202 F 
ATOM     10  F7  LG1 d5015      26.974  24.087  31.341  0.00  0.00    -0.200 F 
ENDROOT
BRANCH   1  11
ATOM     11  N1  LG1 d5015      27.773  22.885  28.976  0.00  0.00    -0.232 N 
ATOM     12  N2  LG1 d5015      28.029  23.983  28.243  0.00  0.00    -0.172 NA
ATOM     13  C10 LG1 d5015      27.194  23.859  27.210  0.00  0.00     0.053 A 
ATOM     14  C9  LG1 d5015      26.409  22.692  27.281  0.00  0.00     0.055 A 
ATOM     15  C11 LG1 d5015      27.174  24.890  26.157  0.00  0.00     0.072 C 
ATOM     16  C8  LG1 d5015      26.811  22.080  28.443  0.00  0.00     0.035 A 
ATOM     17  C12 LG1 d5015      26.363  20.820  29.068  0.00  0.00     0.070 C 
ENDBRANCH   1  11
BRANCH   4  18
ATOM     18  C7  LG1 d5015      30.610  21.992  33.797  0.00  0.00     0.423 C 
ATOM     19  F4  LG1 d5015      31.222  23.109  34.287  0.00  0.00    -0.166 F 
ATOM     20  F3  LG1 d5015      31.604  21.062  33.683  0.00  0.00    -0.166 F 
ATOM     21  F5  LG1 d5015      29.805  21.544  34.804  0.00  0.00    -0.166 F 
ENDBRANCH   4  18
TORSDOF 2
ENDMDL
