REMARK INTER + INTRA:          -5.288
REMARK INTER:                  -5.155
REMARK INTRA:                  -0.133
REMARK UNBOUND:                -0.117
REMARK  1 active torsions:
REMARK  status: ('A' for Active; 'I' for Inactive)
REMARK    1  A    between atoms: C10_13  and  C11_14 
ROOT
ATOM      1  C1  LG1 d5015      27.766  20.518  29.585  0.00  0.00     0.018 C 
ATOM      2  C2  LG1 d5015      28.935  21.285  30.083  0.00  0.00     0.193 C 
ATOM      3  C3  LG1 d5015      28.903  21.579  31.531  0.00  0.00     0.049 A 
ATOM      4  C4  LG1 d5015      29.885  22.390  32.103  0.00  0.00     0.037 A 
ATOM      5  C5  LG1 d5015      29.882  22.612  33.481  0.00  0.00     0.012 A 
ATOM      6  C6  LG1 d5015      28.908  22.021  34.287  0.00  0.00     0.022 A 
ATOM      7  C7  LG1 d5015      27.928  21.208  33.714  0.00  0.00     0.039 A 
ATOM      8  C8  LG1 d5015      27.914  21.000  32.335  0.00  0.00     0.083 A 
ATOM      9  O1  LG1 d5015      26.935  20.178  31.842  0.00  0.00    -0.346 OA
ATOM     10  C9  LG1 d5015      26.577  20.476  30.489  0.00  0.00     0.218 C 
ATOM     11 BR1  LG1 d5015      31.191  23.734  34.259  0.00  0.00    -0.051 Br
ATOM     12  O2  LG1 d5015      29.857  21.655  29.371  0.00  0.00    -0.287 OA
ATOM     13  C10 LG1 d5015      27.832  19.925  28.387  0.00  0.00     0.025 C 
ENDROOT
BRANCH  13  14
ATOM     14  C11 LG1 d5015      26.773  19.158  27.801  0.00  0.00    -0.029 A 
ATOM     15  C14 LG1 d5015      25.963  19.646  26.801  0.00  0.00     0.061 A 
ATOM     16  S1  LG1 d5015      24.794  18.498  26.305  0.00  0.00    -0.113 SA
ATOM     17  C13 LG1 d5015      25.369  17.344  27.430  0.00  0.00     0.050 A 
ATOM     18  C12 LG1 d5015      26.430  17.824  28.165  0.00  0.00     0.019 A 
ENDBRANCH  13  14
TORSDOF 1
ENDMDL
