REMARK INTER + INTRA:          -4.681
REMARK INTER:                  -4.517
REMARK INTRA:                  -0.164
REMARK UNBOUND:                -0.169
REMARK  1 active torsions:
REMARK  status: ('A' for Active; 'I' for Inactive)
REMARK    1  A    between atoms: C10_13  and  C11_14 
ROOT
ATOM      1  C1  LG1 d5015      28.522  20.920  30.620  0.00  0.00     0.018 C 
ATOM      2  C2  LG1 d5015      28.166  20.438  29.262  0.00  0.00     0.193 C 
ATOM      3  C3  LG1 d5015      26.757  20.015  29.111  0.00  0.00     0.049 A 
ATOM      4  C4  LG1 d5015      26.323  19.438  27.916  0.00  0.00     0.037 A 
ATOM      5  C5  LG1 d5015      24.979  19.098  27.762  0.00  0.00     0.012 A 
ATOM      6  C6  LG1 d5015      24.068  19.341  28.791  0.00  0.00     0.022 A 
ATOM      7  C7  LG1 d5015      24.503  19.922  29.983  0.00  0.00     0.039 A 
ATOM      8  C8  LG1 d5015      25.849  20.244  30.152  0.00  0.00     0.083 A 
ATOM      9  O1  LG1 d5015      26.203  20.827  31.340  0.00  0.00    -0.346 OA
ATOM     10  C9  LG1 d5015      27.562  20.571  31.711  0.00  0.00     0.218 C 
ATOM     11 BR1  LG1 d5015      24.390  18.287  26.158  0.00  0.00    -0.051 Br
ATOM     12  O2  LG1 d5015      28.957  20.386  28.331  0.00  0.00    -0.287 OA
ATOM     13  C10 LG1 d5015      29.652  21.616  30.795  0.00  0.00     0.025 C 
ENDROOT
BRANCH  13  14
ATOM     14  C11 LG1 d5015      30.100  22.133  32.053  0.00  0.00    -0.029 A 
ATOM     15  C14 LG1 d5015      29.726  23.369  32.530  0.00  0.00     0.061 A 
ATOM     16  S1  LG1 d5015      30.421  23.706  34.057  0.00  0.00    -0.113 SA
ATOM     17  C13 LG1 d5015      31.227  22.195  34.084  0.00  0.00     0.050 A 
ATOM     18  C12 LG1 d5015      30.971  21.452  32.954  0.00  0.00     0.019 A 
ENDBRANCH  13  14
TORSDOF 1
ENDMDL
