REMARK INTER + INTRA:          -4.740
REMARK INTER:                  -4.618
REMARK INTRA:                  -0.122
REMARK UNBOUND:                -0.104
REMARK  1 active torsions:
REMARK  status: ('A' for Active; 'I' for Inactive)
REMARK    1  A    between atoms: C10_13  and  C11_14 
ROOT
ATOM      1  C1  LG1 d5015      27.985  21.076  31.086  0.00  0.00     0.018 C 
ATOM      2  C2  LG1 d5015      26.856  20.270  30.557  0.00  0.00     0.193 C 
ATOM      3  C3  LG1 d5015      26.920  20.006  29.104  0.00  0.00     0.049 A 
ATOM      4  C4  LG1 d5015      25.863  19.357  28.463  0.00  0.00     0.037 A 
ATOM      5  C5  LG1 d5015      25.959  19.058  27.104  0.00  0.00     0.012 A 
ATOM      6  C6  LG1 d5015      27.107  19.396  26.388  0.00  0.00     0.022 A 
ATOM      7  C7  LG1 d5015      28.165  20.042  27.030  0.00  0.00     0.039 A 
ATOM      8  C8  LG1 d5015      28.066  20.363  28.384  0.00  0.00     0.083 A 
ATOM      9  O1  LG1 d5015      29.147  20.981  28.955  0.00  0.00    -0.346 OA
ATOM     10  C9  LG1 d5015      28.799  21.808  30.070  0.00  0.00     0.218 C 
ATOM     11 BR1  LG1 d5015      24.518  18.205  26.222  0.00  0.00    -0.051 Br
ATOM     12  O2  LG1 d5015      25.939  19.852  31.249  0.00  0.00    -0.287 OA
ATOM     13  C10 LG1 d5015      28.207  21.109  32.406  0.00  0.00     0.025 C 
ENDROOT
BRANCH  13  14
ATOM     14  C11 LG1 d5015      29.262  21.846  33.034  0.00  0.00    -0.029 A 
ATOM     15  C14 LG1 d5015      29.177  23.195  33.297  0.00  0.00     0.061 A 
ATOM     16  S1  LG1 d5015      30.592  23.791  34.054  0.00  0.00    -0.113 SA
ATOM     17  C13 LG1 d5015      31.322  22.244  34.032  0.00  0.00     0.050 A 
ATOM     18  C12 LG1 d5015      30.505  21.295  33.460  0.00  0.00     0.019 A 
ENDBRANCH  13  14
TORSDOF 1
ENDMDL
