REMARK INTER + INTRA:          -4.405
REMARK INTER:                  -4.236
REMARK INTRA:                  -0.168
REMARK UNBOUND:                -0.168
REMARK  1 active torsions:
REMARK  status: ('A' for Active; 'I' for Inactive)
REMARK    1  A    between atoms: C10_13  and  C11_14 
ROOT
ATOM      1  C1  LG1 d5015      26.660  23.120  30.768  0.00  0.00     0.018 C 
ATOM      2  C2  LG1 d5015      27.305  22.229  29.771  0.00  0.00     0.193 C 
ATOM      3  C3  LG1 d5015      28.702  21.866  30.087  0.00  0.00     0.049 A 
ATOM      4  C4  LG1 d5015      29.457  21.126  29.175  0.00  0.00     0.037 A 
ATOM      5  C5  LG1 d5015      30.755  20.736  29.507  0.00  0.00     0.012 A 
ATOM      6  C6  LG1 d5015      31.295  21.074  30.748  0.00  0.00     0.022 A 
ATOM      7  C7  LG1 d5015      30.539  21.811  31.661  0.00  0.00     0.039 A 
ATOM      8  C8  LG1 d5015      29.249  22.222  31.326  0.00  0.00     0.083 A 
ATOM      9  O1  LG1 d5015      28.556  22.927  32.275  0.00  0.00    -0.346 OA
ATOM     10  C9  LG1 d5015      27.581  23.814  31.718  0.00  0.00     0.218 C 
ATOM     11 BR1  LG1 d5015      31.794  19.760  28.263  0.00  0.00    -0.051 Br
ATOM     12  O2  LG1 d5015      26.744  21.820  28.765  0.00  0.00    -0.287 OA
ATOM     13  C10 LG1 d5015      25.328  23.256  30.764  0.00  0.00     0.025 C 
ENDROOT
BRANCH  13  14
ATOM     14  C11 LG1 d5015      24.593  24.082  31.674  0.00  0.00    -0.029 A 
ATOM     15  C14 LG1 d5015      24.285  25.396  31.407  0.00  0.00     0.061 A 
ATOM     16  S1  LG1 d5015      23.400  26.120  32.681  0.00  0.00    -0.113 SA
ATOM     17  C13 LG1 d5015      23.427  24.674  33.596  0.00  0.00     0.050 A 
ATOM     18  C12 LG1 d5015      24.095  23.663  32.942  0.00  0.00     0.019 A 
ENDBRANCH  13  14
TORSDOF 1
ENDMDL
