REMARK INTER + INTRA:          -4.750
REMARK INTER:                  -4.605
REMARK INTRA:                  -0.145
REMARK UNBOUND:                -0.117
REMARK  1 active torsions:
REMARK  status: ('A' for Active; 'I' for Inactive)
REMARK    1  A    between atoms: C10_13  and  C11_14 
ROOT
ATOM      1  C1  LG1 d5015      27.998  21.110  31.082  0.00  0.00     0.018 C 
ATOM      2  C2  LG1 d5015      26.865  20.305  30.561  0.00  0.00     0.193 C 
ATOM      3  C3  LG1 d5015      26.926  20.030  29.110  0.00  0.00     0.049 A 
ATOM      4  C4  LG1 d5015      25.867  19.379  28.475  0.00  0.00     0.037 A 
ATOM      5  C5  LG1 d5015      25.959  19.070  27.117  0.00  0.00     0.012 A 
ATOM      6  C6  LG1 d5015      27.107  19.400  26.397  0.00  0.00     0.022 A 
ATOM      7  C7  LG1 d5015      28.168  20.048  27.033  0.00  0.00     0.039 A 
ATOM      8  C8  LG1 d5015      28.072  20.379  28.385  0.00  0.00     0.083 A 
ATOM      9  O1  LG1 d5015      29.156  20.998  28.950  0.00  0.00    -0.346 OA
ATOM     10  C9  LG1 d5015      28.813  21.834  30.060  0.00  0.00     0.218 C 
ATOM     11 BR1  LG1 d5015      24.514  18.216  26.244  0.00  0.00    -0.051 Br
ATOM     12  O2  LG1 d5015      25.948  19.894  31.257  0.00  0.00    -0.287 OA
ATOM     13  C10 LG1 d5015      28.222  21.152  32.401  0.00  0.00     0.025 C 
ENDROOT
BRANCH  13  14
ATOM     14  C11 LG1 d5015      29.280  21.891  33.022  0.00  0.00    -0.029 A 
ATOM     15  C14 LG1 d5015      29.173  23.226  33.339  0.00  0.00     0.061 A 
ATOM     16  S1  LG1 d5015      30.598  23.828  34.072  0.00  0.00    -0.113 SA
ATOM     17  C13 LG1 d5015      31.364  22.301  33.967  0.00  0.00     0.050 A 
ATOM     18  C12 LG1 d5015      30.549  21.354  33.386  0.00  0.00     0.019 A 
ENDBRANCH  13  14
TORSDOF 1
ENDMDL
