REMARK INTER + INTRA:          -6.823
REMARK INTER:                  -6.293
REMARK INTRA:                  -0.529
REMARK UNBOUND:                -0.532
REMARK  2 active torsions:
REMARK  status: ('A' for Active; 'I' for Inactive)
REMARK    1  A    between atoms: C1_1  and  N1_15 
REMARK    2  A    between atoms: C7_9  and  C4_4 
ROOT
ATOM      1  C1  LG1 d5015      28.281  20.939  30.010  0.00  0.00     0.141 A 
ATOM      2  C2  LG1 d5015      29.618  21.336  29.965  0.00  0.00     0.187 A 
ATOM      3  C3  LG1 d5015      30.303  21.613  31.147  0.00  0.00     0.175 A 
ATOM      4  C4  LG1 d5015      29.652  21.494  32.375  0.00  0.00     0.131 A 
ATOM      5  C5  LG1 d5015      28.316  21.098  32.421  0.00  0.00     0.175 A 
ATOM      6  C6  LG1 d5015      27.631  20.820  31.238  0.00  0.00     0.187 A 
ATOM      7  F1  LG1 d5015      26.347  20.440  31.298  0.00  0.00    -0.200 F 
ATOM      8  F2  LG1 d5015      27.682  20.982  33.597  0.00  0.00    -0.202 F 
ATOM      9  F6  LG1 d5015      31.589  21.993  31.093  0.00  0.00    -0.202 F 
ATOM     10  F7  LG1 d5015      30.256  21.454  28.791  0.00  0.00    -0.200 F 
ENDROOT
BRANCH   1  11
ATOM     11  N1  LG1 d5015      27.601  20.664  28.838  0.00  0.00    -0.232 N 
ATOM     12  N2  LG1 d5015      27.481  19.393  28.418  0.00  0.00    -0.172 NA
ATOM     13  C10 LG1 d5015      26.784  19.513  27.285  0.00  0.00     0.053 A 
ATOM     14  C9  LG1 d5015      26.462  20.850  26.983  0.00  0.00     0.055 A 
ATOM     15  C11 LG1 d5015      26.439  18.311  26.508  0.00  0.00     0.072 C 
ATOM     16  C8  LG1 d5015      27.008  21.575  28.015  0.00  0.00     0.035 A 
ATOM     17  C12 LG1 d5015      27.007  23.028  28.271  0.00  0.00     0.070 C 
ENDBRANCH   1  11
BRANCH   4  18
ATOM     18  C7  LG1 d5015      30.386  21.792  33.640  0.00  0.00     0.423 C 
ATOM     19  F4  LG1 d5015      29.643  21.582  34.766  0.00  0.00    -0.166 F 
ATOM     20  F3  LG1 d5015      30.815  23.085  33.732  0.00  0.00    -0.166 F 
ATOM     21  F5  LG1 d5015      31.505  21.025  33.790  0.00  0.00    -0.166 F 
ENDBRANCH   4  18
TORSDOF 2
ENDMDL
