REMARK INTER + INTRA:          -6.812
REMARK INTER:                  -6.287
REMARK INTRA:                  -0.526
REMARK UNBOUND:                -0.532
REMARK  2 active torsions:
REMARK  status: ('A' for Active; 'I' for Inactive)
REMARK    1  A    between atoms: C1_1  and  N1_15 
REMARK    2  A    between atoms: C7_9  and  C4_4 
ROOT
ATOM      1  C1  LG1 d5015      28.293  20.973  30.029  0.00  0.00     0.141 A 
ATOM      2  C2  LG1 d5015      27.641  20.884  31.259  0.00  0.00     0.187 A 
ATOM      3  C3  LG1 d5015      28.330  21.176  32.436  0.00  0.00     0.175 A 
ATOM      4  C4  LG1 d5015      29.671  21.555  32.384  0.00  0.00     0.131 A 
ATOM      5  C5  LG1 d5015      30.323  21.642  31.154  0.00  0.00     0.175 A 
ATOM      6  C6  LG1 d5015      29.634  21.352  29.978  0.00  0.00     0.187 A 
ATOM      7  F1  LG1 d5015      30.275  21.440  28.803  0.00  0.00    -0.200 F 
ATOM      8  F2  LG1 d5015      31.613  22.005  31.095  0.00  0.00    -0.202 F 
ATOM      9  F6  LG1 d5015      27.693  21.088  33.613  0.00  0.00    -0.202 F 
ATOM     10  F7  LG1 d5015      26.351  20.522  31.323  0.00  0.00    -0.200 F 
ENDROOT
BRANCH   1  11
ATOM     11  N1  LG1 d5015      27.611  20.684  28.861  0.00  0.00    -0.232 N 
ATOM     12  N2  LG1 d5015      27.477  19.406  28.465  0.00  0.00    -0.172 NA
ATOM     13  C10 LG1 d5015      26.783  19.513  27.329  0.00  0.00     0.053 A 
ATOM     14  C9  LG1 d5015      26.477  20.847  27.001  0.00  0.00     0.055 A 
ATOM     15  C11 LG1 d5015      26.426  18.299  26.574  0.00  0.00     0.072 C 
ATOM     16  C8  LG1 d5015      27.030  21.585  28.019  0.00  0.00     0.035 A 
ATOM     17  C12 LG1 d5015      27.045  23.043  28.247  0.00  0.00     0.070 C 
ENDBRANCH   1  11
BRANCH   4  18
ATOM     18  C7  LG1 d5015      30.408  21.865  33.644  0.00  0.00     0.423 C 
ATOM     19  F4  LG1 d5015      31.563  21.153  33.791  0.00  0.00    -0.166 F 
ATOM     20  F3  LG1 d5015      29.686  21.612  34.775  0.00  0.00    -0.166 F 
ATOM     21  F5  LG1 d5015      30.772  23.178  33.728  0.00  0.00    -0.166 F 
ENDBRANCH   4  18
TORSDOF 2
ENDMDL
