REMARK INTER + INTRA:          -4.485
REMARK INTER:                  -4.346
REMARK INTRA:                  -0.139
REMARK UNBOUND:                -0.169
REMARK  1 active torsions:
REMARK  status: ('A' for Active; 'I' for Inactive)
REMARK    1  A    between atoms: C10_13  and  C11_14 
ROOT
ATOM      1  C1  LG1 d5015      26.647  23.286  30.797  0.00  0.00     0.018 C 
ATOM      2  C2  LG1 d5015      27.276  22.423  29.766  0.00  0.00     0.193 C 
ATOM      3  C3  LG1 d5015      28.672  22.037  30.060  0.00  0.00     0.049 A 
ATOM      4  C4  LG1 d5015      29.413  21.320  29.118  0.00  0.00     0.037 A 
ATOM      5  C5  LG1 d5015      30.709  20.907  29.427  0.00  0.00     0.012 A 
ATOM      6  C6  LG1 d5015      31.261  21.198  30.675  0.00  0.00     0.022 A 
ATOM      7  C7  LG1 d5015      30.519  21.911  31.618  0.00  0.00     0.039 A 
ATOM      8  C8  LG1 d5015      29.231  22.346  31.306  0.00  0.00     0.083 A 
ATOM      9  O1  LG1 d5015      28.552  23.025  32.283  0.00  0.00    -0.346 OA
ATOM     10  C9  LG1 d5015      27.581  23.940  31.763  0.00  0.00     0.218 C 
ATOM     11 BR1  LG1 d5015      31.730  19.963  28.144  0.00  0.00    -0.051 Br
ATOM     12  O2  LG1 d5015      26.704  22.054  28.751  0.00  0.00    -0.287 OA
ATOM     13  C10 LG1 d5015      25.317  23.435  30.808  0.00  0.00     0.025 C 
ENDROOT
BRANCH  13  14
ATOM     14  C11 LG1 d5015      24.596  24.238  31.750  0.00  0.00    -0.029 A 
ATOM     15  C14 LG1 d5015      24.254  23.790  33.006  0.00  0.00     0.061 A 
ATOM     16  S1  LG1 d5015      23.400  24.974  33.900  0.00  0.00    -0.113 SA
ATOM     17  C13 LG1 d5015      23.487  26.092  32.606  0.00  0.00     0.050 A 
ATOM     18  C12 LG1 d5015      24.152  25.573  31.518  0.00  0.00     0.019 A 
ENDBRANCH  13  14
TORSDOF 1
ENDMDL
