REMARK INTER + INTRA:          -4.356
REMARK INTER:                  -4.187
REMARK INTRA:                  -0.169
REMARK UNBOUND:                -0.169
REMARK  1 active torsions:
REMARK  status: ('A' for Active; 'I' for Inactive)
REMARK    1  A    between atoms: C10_13  and  C11_14 
ROOT
ATOM      1  C1  LG1 d5015      26.387  20.446  29.894  0.00  0.00     0.018 C 
ATOM      2  C2  LG1 d5015      26.848  20.885  31.235  0.00  0.00     0.193 C 
ATOM      3  C3  LG1 d5015      28.300  21.145  31.328  0.00  0.00     0.049 A 
ATOM      4  C4  LG1 d5015      28.878  21.455  32.561  0.00  0.00     0.037 A 
ATOM      5  C5  LG1 d5015      30.239  21.757  32.629  0.00  0.00     0.012 A 
ATOM      6  C6  LG1 d5015      31.018  21.761  31.472  0.00  0.00     0.022 A 
ATOM      7  C7  LG1 d5015      30.438  21.454  30.240  0.00  0.00     0.039 A 
ATOM      8  C8  LG1 d5015      29.084  21.130  30.168  0.00  0.00     0.083 A 
ATOM      9  O1  LG1 d5015      28.577  20.856  28.925  0.00  0.00    -0.346 OA
ATOM     10  C9  LG1 d5015      27.450  19.973  28.958  0.00  0.00     0.218 C 
ATOM     11 BR1  LG1 d5015      31.035  22.148  34.300  0.00  0.00    -0.051 Br
ATOM     12  O2  LG1 d5015      26.105  21.026  32.195  0.00  0.00    -0.287 OA
ATOM     13  C10 LG1 d5015      25.081  20.490  29.601  0.00  0.00     0.025 C 
ENDROOT
BRANCH  13  14
ATOM     14  C11 LG1 d5015      24.516  20.095  28.346  0.00  0.00    -0.029 A 
ATOM     15  C14 LG1 d5015      24.088  18.812  28.089  0.00  0.00     0.061 A 
ATOM     16  S1  LG1 d5015      23.461  18.649  26.505  0.00  0.00    -0.113 SA
ATOM     17  C13 LG1 d5015      23.762  20.299  26.157  0.00  0.00     0.050 A 
ATOM     18  C12 LG1 d5015      24.327  20.957  27.226  0.00  0.00     0.019 A 
ENDBRANCH  13  14
TORSDOF 1
ENDMDL
