REMARK INTER + INTRA:          -4.810
REMARK INTER:                  -4.606
REMARK INTRA:                  -0.204
REMARK UNBOUND:                -0.205
REMARK  1 active torsions:
REMARK  status: ('A' for Active; 'I' for Inactive)
REMARK    1  A    between atoms: C1_1  and  N1_10 
ROOT
ATOM      1  C1  LG1 d5015      28.289  21.885  30.503  0.00  0.00     0.056 A 
ATOM      2  C2  LG1 d5015      29.575  21.956  31.038  0.00  0.00    -0.033 A 
ATOM      3  C3  LG1 d5015      30.645  21.375  30.357  0.00  0.00     0.028 A 
ATOM      4  C4  LG1 d5015      30.430  20.724  29.143  0.00  0.00     0.012 A 
ATOM      5  C5  LG1 d5015      29.142  20.651  28.609  0.00  0.00     0.028 A 
ATOM      6  C6  LG1 d5015      28.073  21.232  29.290  0.00  0.00    -0.033 A 
ATOM      7  C7  LG1 d5015      26.705  21.139  28.693  0.00  0.00     0.050 C 
ATOM      8 BR1  LG1 d5015      31.880  19.935  28.223  0.00  0.00    -0.051 Br
ATOM      9  C8  LG1 d5015      29.838  22.649  32.335  0.00  0.00     0.050 C 
ENDROOT
BRANCH   1  10
ATOM     10  N1  LG1 d5015      27.187  22.484  31.203  0.00  0.00    -0.265 N 
ATOM     11  C11 LG1 d5015      26.365  21.801  32.100  0.00  0.00     0.148 C 
ATOM     12  S2  LG1 d5015      26.532  20.278  32.777  0.00  0.00    -0.052 SA
ATOM     13  S1  LG1 d5015      25.037  22.847  32.588  0.00  0.00    -0.090 SA
ATOM     14  C10 LG1 d5015      25.745  24.308  31.828  0.00  0.00     0.185 C 
ATOM     15  C9  LG1 d5015      26.886  23.834  30.975  0.00  0.00     0.239 C 
ATOM     16  O1  LG1 d5015      27.431  24.596  30.180  0.00  0.00    -0.272 OA
ENDBRANCH   1  10
TORSDOF 1
ENDMDL
