REMARK INTER + INTRA:          -4.804
REMARK INTER:                  -4.596
REMARK INTRA:                  -0.208
REMARK UNBOUND:                -0.203
REMARK  1 active torsions:
REMARK  status: ('A' for Active; 'I' for Inactive)
REMARK    1  A    between atoms: C1_1  and  N1_10 
ROOT
ATOM      1  C1  LG1 d5015      28.174  22.136  30.514  0.00  0.00     0.056 A 
ATOM      2  C2  LG1 d5015      29.450  22.189  31.074  0.00  0.00    -0.033 A 
ATOM      3  C3  LG1 d5015      30.511  21.529  30.454  0.00  0.00     0.028 A 
ATOM      4  C4  LG1 d5015      30.297  20.817  29.275  0.00  0.00     0.012 A 
ATOM      5  C5  LG1 d5015      29.019  20.763  28.715  0.00  0.00     0.028 A 
ATOM      6  C6  LG1 d5015      27.959  21.423  29.335  0.00  0.00    -0.033 A 
ATOM      7  C7  LG1 d5015      26.603  21.347  28.712  0.00  0.00     0.050 C 
ATOM      8 BR1  LG1 d5015      31.735  19.921  28.436  0.00  0.00    -0.051 Br
ATOM      9  C8  LG1 d5015      29.712  22.946  32.336  0.00  0.00     0.050 C 
ENDROOT
BRANCH   1  10
ATOM     10  N1  LG1 d5015      27.082  22.816  31.151  0.00  0.00    -0.265 N 
ATOM     11  C11 LG1 d5015      26.234  22.228  32.089  0.00  0.00     0.148 C 
ATOM     12  S2  LG1 d5015      26.355  20.760  32.888  0.00  0.00    -0.052 SA
ATOM     13  S1  LG1 d5015      24.930  23.343  32.479  0.00  0.00    -0.090 SA
ATOM     14  C10 LG1 d5015      25.682  24.720  31.613  0.00  0.00     0.185 C 
ATOM     15  C9  LG1 d5015      26.818  24.151  30.813  0.00  0.00     0.239 C 
ATOM     16  O1  LG1 d5015      27.389  24.834  29.965  0.00  0.00    -0.272 OA
ENDBRANCH   1  10
TORSDOF 1
ENDMDL
