REMARK INTER + INTRA:          -5.293
REMARK INTER:                  -5.167
REMARK INTRA:                  -0.126
REMARK UNBOUND:                -0.104
REMARK  1 active torsions:
REMARK  status: ('A' for Active; 'I' for Inactive)
REMARK    1  A    between atoms: C10_13  and  C11_14 
ROOT
ATOM      1  C1  LG1 d5015      27.811  20.537  29.569  0.00  0.00     0.018 C 
ATOM      2  C2  LG1 d5015      29.005  21.256  30.079  0.00  0.00     0.193 C 
ATOM      3  C3  LG1 d5015      28.978  21.535  31.531  0.00  0.00     0.049 A 
ATOM      4  C4  LG1 d5015      29.988  22.302  32.115  0.00  0.00     0.037 A 
ATOM      5  C5  LG1 d5015      29.988  22.510  33.495  0.00  0.00     0.012 A 
ATOM      6  C6  LG1 d5015      28.990  21.945  34.291  0.00  0.00     0.022 A 
ATOM      7  C7  LG1 d5015      27.983  21.175  33.707  0.00  0.00     0.039 A 
ATOM      8  C8  LG1 d5015      27.966  20.983  32.325  0.00  0.00     0.083 A 
ATOM      9  O1  LG1 d5015      26.960  20.202  31.820  0.00  0.00    -0.346 OA
ATOM     10  C9  LG1 d5015      26.618  20.528  30.469  0.00  0.00     0.218 C 
ATOM     11 BR1  LG1 d5015      31.334  23.574  34.289  0.00  0.00    -0.051 Br
ATOM     12  O2  LG1 d5015      29.943  21.600  29.374  0.00  0.00    -0.287 OA
ATOM     13  C10 LG1 d5015      27.859  19.956  28.365  0.00  0.00     0.025 C 
ENDROOT
BRANCH  13  14
ATOM     14  C11 LG1 d5015      26.775  19.235  27.767  0.00  0.00    -0.029 A 
ATOM     15  C14 LG1 d5015      25.996  19.757  26.759  0.00  0.00     0.061 A 
ATOM     16  S1  LG1 d5015      24.785  18.660  26.250  0.00  0.00    -0.113 SA
ATOM     17  C13 LG1 d5015      25.300  17.482  27.379  0.00  0.00     0.050 A 
ATOM     18  C12 LG1 d5015      26.372  17.916  28.126  0.00  0.00     0.019 A 
ENDBRANCH  13  14
TORSDOF 1
ENDMDL
