REMARK INTER + INTRA:          -7.002
REMARK INTER:                  -6.502
REMARK INTRA:                  -0.500
REMARK UNBOUND:                -0.532
REMARK  2 active torsions:
REMARK  status: ('A' for Active; 'I' for Inactive)
REMARK    1  A    between atoms: C1_1  and  N1_15 
REMARK    2  A    between atoms: C7_9  and  C4_4 
ROOT
ATOM      1  C1  LG1 d5015      28.479  22.665  30.129  0.00  0.00     0.141 A 
ATOM      2  C2  LG1 d5015      29.627  21.872  30.148  0.00  0.00     0.187 A 
ATOM      3  C3  LG1 d5015      30.310  21.662  31.346  0.00  0.00     0.175 A 
ATOM      4  C4  LG1 d5015      29.846  22.245  32.525  0.00  0.00     0.131 A 
ATOM      5  C5  LG1 d5015      28.700  23.038  32.506  0.00  0.00     0.175 A 
ATOM      6  C6  LG1 d5015      28.016  23.248  31.309  0.00  0.00     0.187 A 
ATOM      7  F1  LG1 d5015      26.915  24.013  31.306  0.00  0.00    -0.200 F 
ATOM      8  F2  LG1 d5015      28.247  23.603  33.635  0.00  0.00    -0.202 F 
ATOM      9  F6  LG1 d5015      31.412  20.897  31.352  0.00  0.00    -0.202 F 
ATOM     10  F7  LG1 d5015      30.083  21.305  29.022  0.00  0.00    -0.200 F 
ENDROOT
BRANCH   1  11
ATOM     11  N1  LG1 d5015      27.801  22.874  28.942  0.00  0.00    -0.232 N 
ATOM     12  N2  LG1 d5015      28.002  24.008  28.250  0.00  0.00    -0.172 NA
ATOM     13  C10 LG1 d5015      27.201  23.863  27.192  0.00  0.00     0.053 A 
ATOM     14  C9  LG1 d5015      26.493  22.646  27.208  0.00  0.00     0.055 A 
ATOM     15  C11 LG1 d5015      27.138  24.924  26.171  0.00  0.00     0.072 C 
ATOM     16  C8  LG1 d5015      26.907  22.025  28.361  0.00  0.00     0.035 A 
ATOM     17  C12 LG1 d5015      26.528  20.720  28.936  0.00  0.00     0.070 C 
ENDBRANCH   1  11
BRANCH   4  18
ATOM     18  C7  LG1 d5015      30.578  22.020  33.805  0.00  0.00     0.423 C 
ATOM     19  F4  LG1 d5015      31.140  23.153  34.320  0.00  0.00    -0.166 F 
ATOM     20  F3  LG1 d5015      31.608  21.130  33.697  0.00  0.00    -0.166 F 
ATOM     21  F5  LG1 d5015      29.772  21.530  34.791  0.00  0.00    -0.166 F 
ENDBRANCH   4  18
TORSDOF 2
ENDMDL
