REMARK INTER + INTRA:          -4.315
REMARK INTER:                  -4.187
REMARK INTRA:                  -0.128
REMARK UNBOUND:                -0.128
REMARK  1 active torsions:
REMARK  status: ('A' for Active; 'I' for Inactive)
REMARK    1  A    between atoms: C10_13  and  C11_14 
ROOT
ATOM      1  C1  LG1 d5015      27.338  23.485  30.018  0.00  0.00     0.018 C 
ATOM      2  C2  LG1 d5015      26.440  22.562  30.756  0.00  0.00     0.193 C 
ATOM      3  C3  LG1 d5015      27.046  21.949  31.957  0.00  0.00     0.049 A 
ATOM      4  C4  LG1 d5015      26.347  20.977  32.676  0.00  0.00     0.037 A 
ATOM      5  C5  LG1 d5015      26.901  20.448  33.842  0.00  0.00     0.012 A 
ATOM      6  C6  LG1 d5015      28.144  20.893  34.295  0.00  0.00     0.022 A 
ATOM      7  C7  LG1 d5015      28.840  21.867  33.578  0.00  0.00     0.039 A 
ATOM      8  C8  LG1 d5015      28.301  22.383  32.400  0.00  0.00     0.083 A 
ATOM      9  O1  LG1 d5015      29.030  23.348  31.755  0.00  0.00    -0.346 OA
ATOM     10  C9  LG1 d5015      28.792  23.386  30.344  0.00  0.00     0.218 C 
ATOM     11 BR1  LG1 d5015      25.973  19.109  34.804  0.00  0.00    -0.051 Br
ATOM     12  O2  LG1 d5015      25.293  22.315  30.416  0.00  0.00    -0.287 OA
ATOM     13  C10 LG1 d5015      26.816  24.331  29.120  0.00  0.00     0.025 C 
ENDROOT
BRANCH  13  14
ATOM     14  C11 LG1 d5015      27.577  25.267  28.348  0.00  0.00    -0.029 A 
ATOM     15  C14 LG1 d5015      27.877  25.070  27.019  0.00  0.00     0.061 A 
ATOM     16  S1  LG1 d5015      28.796  26.361  26.371  0.00  0.00    -0.113 SA
ATOM     17  C13 LG1 d5015      28.796  27.187  27.870  0.00  0.00     0.050 A 
ATOM     18  C12 LG1 d5015      28.110  26.493  28.842  0.00  0.00     0.019 A 
ENDBRANCH  13  14
TORSDOF 1
ENDMDL
