REMARK INTER + INTRA:          -4.304
REMARK INTER:                  -4.187
REMARK INTRA:                  -0.117
REMARK UNBOUND:                -0.117
REMARK  1 active torsions:
REMARK  status: ('A' for Active; 'I' for Inactive)
REMARK    1  A    between atoms: C10_13  and  C11_14 
ROOT
ATOM      1  C1  LG1 d5015      27.371  23.450  30.064  0.00  0.00     0.018 C 
ATOM      2  C2  LG1 d5015      26.497  22.506  30.804  0.00  0.00     0.193 C 
ATOM      3  C3  LG1 d5015      27.101  21.946  32.031  0.00  0.00     0.049 A 
ATOM      4  C4  LG1 d5015      26.427  20.962  32.758  0.00  0.00     0.037 A 
ATOM      5  C5  LG1 d5015      26.977  20.483  33.948  0.00  0.00     0.012 A 
ATOM      6  C6  LG1 d5015      28.189  20.990  34.417  0.00  0.00     0.022 A 
ATOM      7  C7  LG1 d5015      28.860  21.976  33.692  0.00  0.00     0.039 A 
ATOM      8  C8  LG1 d5015      28.326  22.443  32.491  0.00  0.00     0.083 A 
ATOM      9  O1  LG1 d5015      29.028  23.424  31.840  0.00  0.00    -0.346 OA
ATOM     10  C9  LG1 d5015      28.821  23.419  30.424  0.00  0.00     0.218 C 
ATOM     11 BR1  LG1 d5015      26.084  19.128  34.920  0.00  0.00    -0.051 Br
ATOM     12  O2  LG1 d5015      25.368  22.203  30.445  0.00  0.00    -0.287 OA
ATOM     13  C10 LG1 d5015      26.835  24.252  29.136  0.00  0.00     0.025 C 
ENDROOT
BRANCH  13  14
ATOM     14  C11 LG1 d5015      27.573  25.202  28.359  0.00  0.00    -0.029 A 
ATOM     15  C14 LG1 d5015      27.886  25.001  27.033  0.00  0.00     0.061 A 
ATOM     16  S1  LG1 d5015      28.770  26.312  26.377  0.00  0.00    -0.113 SA
ATOM     17  C13 LG1 d5015      28.738  27.152  27.867  0.00  0.00     0.050 A 
ATOM     18  C12 LG1 d5015      28.067  26.448  28.842  0.00  0.00     0.019 A 
ENDBRANCH  13  14
TORSDOF 1
ENDMDL
