REMARK INTER + INTRA:          -4.534
REMARK INTER:                  -4.504
REMARK INTRA:                  -0.030
REMARK UNBOUND:                -0.128
REMARK  1 active torsions:
REMARK  status: ('A' for Active; 'I' for Inactive)
REMARK    1  A    between atoms: C10_13  and  C11_14 
ROOT
ATOM      1  C1  LG1 d5015      26.698  19.617  33.732  0.00  0.00     0.018 C 
ATOM      2  C2  LG1 d5015      26.468  19.983  32.312  0.00  0.00     0.193 C 
ATOM      3  C3  LG1 d5015      27.319  21.086  31.818  0.00  0.00     0.049 A 
ATOM      4  C4  LG1 d5015      27.123  21.600  30.534  0.00  0.00     0.037 A 
ATOM      5  C5  LG1 d5015      27.970  22.599  30.054  0.00  0.00     0.012 A 
ATOM      6  C6  LG1 d5015      29.014  23.078  30.846  0.00  0.00     0.022 A 
ATOM      7  C7  LG1 d5015      29.211  22.561  32.127  0.00  0.00     0.039 A 
ATOM      8  C8  LG1 d5015      28.355  21.577  32.621  0.00  0.00     0.083 A 
ATOM      9  O1  LG1 d5015      28.616  21.102  33.880  0.00  0.00    -0.346 OA
ATOM     10  C9  LG1 d5015      27.449  20.616  34.552  0.00  0.00     0.218 C 
ATOM     11 BR1  LG1 d5015      27.692  23.322  28.328  0.00  0.00    -0.051 Br
ATOM     12  O2  LG1 d5015      25.646  19.431  31.595  0.00  0.00    -0.287 OA
ATOM     13  C10 LG1 d5015      26.232  18.451  34.195  0.00  0.00     0.025 C 
ENDROOT
BRANCH  13  14
ATOM     14  C11 LG1 d5015      26.392  17.989  35.540  0.00  0.00    -0.029 A 
ATOM     15  C14 LG1 d5015      27.166  16.899  35.869  0.00  0.00     0.061 A 
ATOM     16  S1  LG1 d5015      27.162  16.593  37.554  0.00  0.00    -0.113 SA
ATOM     17  C13 LG1 d5015      26.122  17.920  37.848  0.00  0.00     0.050 A 
ATOM     18  C12 LG1 d5015      25.787  18.581  36.687  0.00  0.00     0.019 A 
ENDBRANCH  13  14
TORSDOF 1
ENDMDL
