REMARK INTER + INTRA:          -4.313
REMARK INTER:                  -4.209
REMARK INTRA:                  -0.104
REMARK UNBOUND:                -0.104
REMARK  1 active torsions:
REMARK  status: ('A' for Active; 'I' for Inactive)
REMARK    1  A    between atoms: C10_13  and  C11_14 
ROOT
ATOM      1  C1  LG1 d5015      27.344  23.482  30.040  0.00  0.00     0.018 C 
ATOM      2  C2  LG1 d5015      26.462  22.548  30.783  0.00  0.00     0.193 C 
ATOM      3  C3  LG1 d5015      27.076  21.958  31.992  0.00  0.00     0.049 A 
ATOM      4  C4  LG1 d5015      26.393  20.979  32.717  0.00  0.00     0.037 A 
ATOM      5  C5  LG1 d5015      26.953  20.472  33.890  0.00  0.00     0.012 A 
ATOM      6  C6  LG1 d5015      28.183  20.947  34.345  0.00  0.00     0.022 A 
ATOM      7  C7  LG1 d5015      28.863  21.928  33.621  0.00  0.00     0.039 A 
ATOM      8  C8  LG1 d5015      28.319  22.423  32.436  0.00  0.00     0.083 A 
ATOM      9  O1  LG1 d5015      29.031  23.396  31.786  0.00  0.00    -0.346 OA
ATOM     10  C9  LG1 d5015      28.799  23.416  30.374  0.00  0.00     0.218 C 
ATOM     11 BR1  LG1 d5015      26.048  19.123  34.860  0.00  0.00    -0.051 Br
ATOM     12  O2  LG1 d5015      25.322  22.273  30.439  0.00  0.00    -0.287 OA
ATOM     13  C10 LG1 d5015      26.810  24.308  29.132  0.00  0.00     0.025 C 
ENDROOT
BRANCH  13  14
ATOM     14  C11 LG1 d5015      27.555  25.253  28.355  0.00  0.00    -0.029 A 
ATOM     15  C14 LG1 d5015      27.814  25.079  27.014  0.00  0.00     0.061 A 
ATOM     16  S1  LG1 d5015      28.723  26.374  26.362  0.00  0.00    -0.113 SA
ATOM     17  C13 LG1 d5015      28.773  27.172  27.874  0.00  0.00     0.050 A 
ATOM     18  C12 LG1 d5015      28.111  26.467  28.854  0.00  0.00     0.019 A 
ENDBRANCH  13  14
TORSDOF 1
ENDMDL
