REMARK INTER + INTRA:          -4.538
REMARK INTER:                  -4.493
REMARK INTRA:                  -0.044
REMARK UNBOUND:                -0.104
REMARK  1 active torsions:
REMARK  status: ('A' for Active; 'I' for Inactive)
REMARK    1  A    between atoms: C10_13  and  C11_14 
ROOT
ATOM      1  C1  LG1 d5015      26.692  19.599  33.733  0.00  0.00     0.018 C 
ATOM      2  C2  LG1 d5015      26.457  19.963  32.313  0.00  0.00     0.193 C 
ATOM      3  C3  LG1 d5015      27.307  21.064  31.814  0.00  0.00     0.049 A 
ATOM      4  C4  LG1 d5015      27.108  21.577  30.531  0.00  0.00     0.037 A 
ATOM      5  C5  LG1 d5015      27.954  22.575  30.046  0.00  0.00     0.012 A 
ATOM      6  C6  LG1 d5015      29.001  23.053  30.834  0.00  0.00     0.022 A 
ATOM      7  C7  LG1 d5015      29.202  22.538  32.116  0.00  0.00     0.039 A 
ATOM      8  C8  LG1 d5015      28.346  21.556  32.614  0.00  0.00     0.083 A 
ATOM      9  O1  LG1 d5015      28.611  21.082  33.872  0.00  0.00    -0.346 OA
ATOM     10  C9  LG1 d5015      27.446  20.598  34.549  0.00  0.00     0.218 C 
ATOM     11 BR1  LG1 d5015      27.671  23.295  28.320  0.00  0.00    -0.051 Br
ATOM     12  O2  LG1 d5015      25.632  19.411  31.599  0.00  0.00    -0.287 OA
ATOM     13  C10 LG1 d5015      26.226  18.434  34.198  0.00  0.00     0.025 C 
ENDROOT
BRANCH  13  14
ATOM     14  C11 LG1 d5015      26.390  17.973  35.544  0.00  0.00    -0.029 A 
ATOM     15  C14 LG1 d5015      27.182  16.897  35.875  0.00  0.00     0.061 A 
ATOM     16  S1  LG1 d5015      27.179  16.591  37.559  0.00  0.00    -0.113 SA
ATOM     17  C13 LG1 d5015      26.114  17.898  37.851  0.00  0.00     0.050 A 
ATOM     18  C12 LG1 d5015      25.771  18.554  36.690  0.00  0.00     0.019 A 
ENDBRANCH  13  14
TORSDOF 1
ENDMDL
