MODEL 1
REMARK VINA RESULT:    -4.397      0.000      0.000
REMARK INTER + INTRA:          -4.857
REMARK INTER:                  -4.657
REMARK INTRA:                  -0.200
REMARK UNBOUND:                -0.203
REMARK  1 active torsions:
REMARK  status: ('A' for Active; 'I' for Inactive)
REMARK    1  A    between atoms: C1_1  and  N1_10 
ROOT
ATOM      1  C1  LG1 d5015      28.323  21.523  30.494  0.00  0.00     0.056 A 
ATOM      2  C2  LG1 d5015      29.612  21.767  30.966  0.00  0.00    -0.033 A 
ATOM      3  C3  LG1 d5015      30.718  21.350  30.225  0.00  0.00     0.028 A 
ATOM      4  C4  LG1 d5015      30.535  20.688  29.012  0.00  0.00     0.012 A 
ATOM      5  C5  LG1 d5015      29.244  20.442  28.539  0.00  0.00     0.028 A 
ATOM      6  C6  LG1 d5015      28.140  20.859  29.280  0.00  0.00    -0.033 A 
ATOM      7  C7  LG1 d5015      26.771  20.582  28.748  0.00  0.00     0.050 C 
ATOM      8 BR1  LG1 d5015      32.033  20.120  28.008  0.00  0.00    -0.051 Br
ATOM      9  C8  LG1 d5015      29.841  22.476  32.262  0.00  0.00     0.050 C 
ENDROOT
BRANCH   1  10
ATOM     10  N1  LG1 d5015      27.185  21.953  31.255  0.00  0.00    -0.265 N 
ATOM     11  C11 LG1 d5015      26.622  23.226  31.168  0.00  0.00     0.148 C 
ATOM     12  S2  LG1 d5015      26.903  24.463  30.073  0.00  0.00    -0.052 SA
ATOM     13  S1  LG1 d5015      25.369  23.397  32.393  0.00  0.00    -0.090 SA
ATOM     14  C10 LG1 d5015      25.387  21.658  32.829  0.00  0.00     0.185 C 
ATOM     15  C9  LG1 d5015      26.595  21.064  32.164  0.00  0.00     0.239 C 
ATOM     16  O1  LG1 d5015      26.971  19.929  32.450  0.00  0.00    -0.272 OA
ENDBRANCH   1  10
TORSDOF 1
ENDMDL
MODEL 2
REMARK VINA RESULT:    -4.383      0.061      2.152
REMARK INTER + INTRA:          -4.842
REMARK INTER:                  -4.635
REMARK INTRA:                  -0.207
REMARK UNBOUND:                -0.203
REMARK  1 active torsions:
REMARK  status: ('A' for Active; 'I' for Inactive)
REMARK    1  A    between atoms: C1_1  and  N1_10 
ROOT
ATOM      1  C1  LG1 d5015      28.337  21.552  30.489  0.00  0.00     0.056 A 
ATOM      2  C2  LG1 d5015      28.136  20.885  29.281  0.00  0.00    -0.033 A 
ATOM      3  C3  LG1 d5015      29.232  20.471  28.523  0.00  0.00     0.028 A 
ATOM      4  C4  LG1 d5015      30.527  20.724  28.972  0.00  0.00     0.012 A 
ATOM      5  C5  LG1 d5015      30.728  21.393  30.181  0.00  0.00     0.028 A 
ATOM      6  C6  LG1 d5015      29.633  21.806  30.938  0.00  0.00    -0.033 A 
ATOM      7  C7  LG1 d5015      29.879  22.520  32.228  0.00  0.00     0.050 C 
ATOM      8 BR1  LG1 d5015      32.012  20.165  27.943  0.00  0.00    -0.051 Br
ATOM      9  C8  LG1 d5015      26.760  20.597  28.774  0.00  0.00     0.050 C 
ENDROOT
BRANCH   1  10
ATOM     10  N1  LG1 d5015      27.210  21.977  31.270  0.00  0.00    -0.265 N 
ATOM     11  C11 LG1 d5015      26.622  23.238  31.174  0.00  0.00     0.148 C 
ATOM     12  S2  LG1 d5015      26.856  24.461  30.052  0.00  0.00    -0.052 SA
ATOM     13  S1  LG1 d5015      25.397  23.409  32.425  0.00  0.00    -0.090 SA
ATOM     14  C10 LG1 d5015      25.455  21.679  32.891  0.00  0.00     0.185 C 
ATOM     15  C9  LG1 d5015      26.657  21.094  32.207  0.00  0.00     0.239 C 
ATOM     16  O1  LG1 d5015      27.059  19.971  32.503  0.00  0.00    -0.272 OA
ENDBRANCH   1  10
TORSDOF 1
ENDMDL
MODEL 3
REMARK VINA RESULT:    -4.347      1.750      2.240
REMARK INTER + INTRA:          -4.804
REMARK INTER:                  -4.596
REMARK INTRA:                  -0.208
REMARK UNBOUND:                -0.203
REMARK  1 active torsions:
REMARK  status: ('A' for Active; 'I' for Inactive)
REMARK    1  A    between atoms: C1_1  and  N1_10 
ROOT
ATOM      1  C1  LG1 d5015      28.174  22.136  30.514  0.00  0.00     0.056 A 
ATOM      2  C2  LG1 d5015      29.450  22.189  31.074  0.00  0.00    -0.033 A 
ATOM      3  C3  LG1 d5015      30.511  21.529  30.454  0.00  0.00     0.028 A 
ATOM      4  C4  LG1 d5015      30.297  20.817  29.275  0.00  0.00     0.012 A 
ATOM      5  C5  LG1 d5015      29.019  20.763  28.715  0.00  0.00     0.028 A 
ATOM      6  C6  LG1 d5015      27.959  21.423  29.335  0.00  0.00    -0.033 A 
ATOM      7  C7  LG1 d5015      26.603  21.347  28.712  0.00  0.00     0.050 C 
ATOM      8 BR1  LG1 d5015      31.735  19.921  28.436  0.00  0.00    -0.051 Br
ATOM      9  C8  LG1 d5015      29.712  22.946  32.336  0.00  0.00     0.050 C 
ENDROOT
BRANCH   1  10
ATOM     10  N1  LG1 d5015      27.082  22.816  31.151  0.00  0.00    -0.265 N 
ATOM     11  C11 LG1 d5015      26.234  22.228  32.089  0.00  0.00     0.148 C 
ATOM     12  S2  LG1 d5015      26.355  20.760  32.888  0.00  0.00    -0.052 SA
ATOM     13  S1  LG1 d5015      24.930  23.343  32.479  0.00  0.00    -0.090 SA
ATOM     14  C10 LG1 d5015      25.682  24.720  31.613  0.00  0.00     0.185 C 
ATOM     15  C9  LG1 d5015      26.818  24.151  30.813  0.00  0.00     0.239 C 
ATOM     16  O1  LG1 d5015      27.389  24.834  29.965  0.00  0.00    -0.272 OA
ENDBRANCH   1  10
TORSDOF 1
ENDMDL
MODEL 4
REMARK VINA RESULT:    -4.345      1.742      3.097
REMARK INTER + INTRA:          -4.801
REMARK INTER:                  -4.597
REMARK INTRA:                  -0.204
REMARK UNBOUND:                -0.203
REMARK  1 active torsions:
REMARK  status: ('A' for Active; 'I' for Inactive)
REMARK    1  A    between atoms: C1_1  and  N1_10 
ROOT
ATOM      1  C1  LG1 d5015      28.156  22.110  30.526  0.00  0.00     0.056 A 
ATOM      2  C2  LG1 d5015      27.946  21.418  29.334  0.00  0.00    -0.033 A 
ATOM      3  C3  LG1 d5015      29.010  20.764  28.710  0.00  0.00     0.028 A 
ATOM      4  C4  LG1 d5015      30.282  20.802  29.279  0.00  0.00     0.012 A 
ATOM      5  C5  LG1 d5015      30.493  21.496  30.473  0.00  0.00     0.028 A 
ATOM      6  C6  LG1 d5015      29.430  22.149  31.095  0.00  0.00    -0.033 A 
ATOM      7  C7  LG1 d5015      29.686  22.883  32.371  0.00  0.00     0.050 C 
ATOM      8 BR1  LG1 d5015      31.723  19.918  28.433  0.00  0.00    -0.051 Br
ATOM      9  C8  LG1 d5015      26.594  21.358  28.701  0.00  0.00     0.050 C 
ENDROOT
BRANCH   1  10
ATOM     10  N1  LG1 d5015      27.062  22.781  31.169  0.00  0.00    -0.265 N 
ATOM     11  C11 LG1 d5015      26.217  22.183  32.102  0.00  0.00     0.148 C 
ATOM     12  S2  LG1 d5015      26.341  20.708  32.889  0.00  0.00    -0.052 SA
ATOM     13  S1  LG1 d5015      24.909  23.290  32.502  0.00  0.00    -0.090 SA
ATOM     14  C10 LG1 d5015      25.658  24.677  31.647  0.00  0.00     0.185 C 
ATOM     15  C9  LG1 d5015      26.795  24.118  30.843  0.00  0.00     0.239 C 
ATOM     16  O1  LG1 d5015      27.364  24.810  30.001  0.00  0.00    -0.272 OA
ENDBRANCH   1  10
TORSDOF 1
ENDMDL
MODEL 5
REMARK VINA RESULT:    -4.044      3.034      4.244
REMARK INTER + INTRA:          -4.483
REMARK INTER:                  -4.280
REMARK INTRA:                  -0.203
REMARK UNBOUND:                -0.203
REMARK  1 active torsions:
REMARK  status: ('A' for Active; 'I' for Inactive)
REMARK    1  A    between atoms: C1_1  and  N1_10 
ROOT
ATOM      1  C1  LG1 d5015      28.227  22.166  30.189  0.00  0.00     0.056 A 
ATOM      2  C2  LG1 d5015      29.504  21.607  30.208  0.00  0.00    -0.033 A 
ATOM      3  C3  LG1 d5015      30.312  21.753  31.337  0.00  0.00     0.028 A 
ATOM      4  C4  LG1 d5015      29.842  22.456  32.445  0.00  0.00     0.012 A 
ATOM      5  C5  LG1 d5015      28.563  23.016  32.425  0.00  0.00     0.028 A 
ATOM      6  C6  LG1 d5015      27.757  22.870  31.297  0.00  0.00    -0.033 A 
ATOM      7  C7  LG1 d5015      26.392  23.481  31.306  0.00  0.00     0.050 C 
ATOM      8 BR1  LG1 d5015      30.937  22.655  33.973  0.00  0.00    -0.051 Br
ATOM      9  C8  LG1 d5015      30.035  20.847  29.037  0.00  0.00     0.050 C 
ENDROOT
BRANCH   1  10
ATOM     10  N1  LG1 d5015      27.395  22.015  29.029  0.00  0.00    -0.265 N 
ATOM     11  C11 LG1 d5015      26.511  20.954  28.832  0.00  0.00     0.148 C 
ATOM     12  S2  LG1 d5015      25.997  19.761  29.890  0.00  0.00    -0.052 SA
ATOM     13  S1  LG1 d5015      25.828  21.055  27.213  0.00  0.00    -0.090 SA
ATOM     14  C10 LG1 d5015      26.494  22.690  26.900  0.00  0.00     0.185 C 
ATOM     15  C9  LG1 d5015      27.469  22.971  28.006  0.00  0.00     0.239 C 
ATOM     16  O1  LG1 d5015      28.225  23.938  27.942  0.00  0.00    -0.272 OA
ENDBRANCH   1  10
TORSDOF 1
ENDMDL
