REMARK INTER + INTRA:          -4.549
REMARK INTER:                  -4.511
REMARK INTRA:                  -0.037
REMARK UNBOUND:                -0.169
REMARK  1 active torsions:
REMARK  status: ('A' for Active; 'I' for Inactive)
REMARK    1  A    between atoms: C10_13  and  C11_14 
ROOT
ATOM      1  C1  LG1 d5015      26.708  19.605  33.747  0.00  0.00     0.018 C 
ATOM      2  C2  LG1 d5015      26.480  19.970  32.327  0.00  0.00     0.193 C 
ATOM      3  C3  LG1 d5015      27.325  21.080  31.837  0.00  0.00     0.049 A 
ATOM      4  C4  LG1 d5015      27.130  21.594  30.553  0.00  0.00     0.037 A 
ATOM      5  C5  LG1 d5015      27.972  22.600  30.077  0.00  0.00     0.012 A 
ATOM      6  C6  LG1 d5015      29.010  23.085  30.873  0.00  0.00     0.022 A 
ATOM      7  C7  LG1 d5015      29.206  22.568  32.155  0.00  0.00     0.039 A 
ATOM      8  C8  LG1 d5015      28.354  21.578  32.645  0.00  0.00     0.083 A 
ATOM      9  O1  LG1 d5015      28.614  21.103  33.903  0.00  0.00    -0.346 OA
ATOM     10  C9  LG1 d5015      27.448  20.608  34.571  0.00  0.00     0.218 C 
ATOM     11 BR1  LG1 d5015      27.694  23.323  28.351  0.00  0.00    -0.051 Br
ATOM     12  O2  LG1 d5015      25.665  19.414  31.605  0.00  0.00    -0.287 OA
ATOM     13  C10 LG1 d5015      26.248  18.435  34.206  0.00  0.00     0.025 C 
ENDROOT
BRANCH  13  14
ATOM     14  C11 LG1 d5015      26.406  17.972  35.552  0.00  0.00    -0.029 A 
ATOM     15  C14 LG1 d5015      27.196  16.894  35.885  0.00  0.00     0.061 A 
ATOM     16  S1  LG1 d5015      27.185  16.584  37.568  0.00  0.00    -0.113 SA
ATOM     17  C13 LG1 d5015      26.122  17.895  37.858  0.00  0.00     0.050 A 
ATOM     18  C12 LG1 d5015      25.784  18.552  36.696  0.00  0.00     0.019 A 
ENDBRANCH  13  14
TORSDOF 1
ENDMDL
