REMARK INTER + INTRA:          -4.687
REMARK INTER:                  -4.522
REMARK INTRA:                  -0.165
REMARK UNBOUND:                -0.104
REMARK  1 active torsions:
REMARK  status: ('A' for Active; 'I' for Inactive)
REMARK    1  A    between atoms: C10_13  and  C11_14 
ROOT
ATOM      1  C1  LG1 d5015      28.541  20.936  30.611  0.00  0.00     0.018 C 
ATOM      2  C2  LG1 d5015      28.178  20.458  29.254  0.00  0.00     0.193 C 
ATOM      3  C3  LG1 d5015      26.766  20.047  29.107  0.00  0.00     0.049 A 
ATOM      4  C4  LG1 d5015      26.324  19.474  27.912  0.00  0.00     0.037 A 
ATOM      5  C5  LG1 d5015      24.977  19.145  27.760  0.00  0.00     0.012 A 
ATOM      6  C6  LG1 d5015      24.071  19.396  28.792  0.00  0.00     0.022 A 
ATOM      7  C7  LG1 d5015      24.512  19.972  29.984  0.00  0.00     0.039 A 
ATOM      8  C8  LG1 d5015      25.862  20.283  30.149  0.00  0.00     0.083 A 
ATOM      9  O1  LG1 d5015      26.224  20.862  31.337  0.00  0.00    -0.346 OA
ATOM     10  C9  LG1 d5015      27.581  20.594  31.704  0.00  0.00     0.218 C 
ATOM     11 BR1  LG1 d5015      24.377  18.340  26.157  0.00  0.00    -0.051 Br
ATOM     12  O2  LG1 d5015      28.967  20.400  28.322  0.00  0.00    -0.287 OA
ATOM     13  C10 LG1 d5015      29.677  21.622  30.785  0.00  0.00     0.025 C 
ENDROOT
BRANCH  13  14
ATOM     14  C11 LG1 d5015      30.133  22.135  32.042  0.00  0.00    -0.029 A 
ATOM     15  C14 LG1 d5015      29.781  23.379  32.514  0.00  0.00     0.061 A 
ATOM     16  S1  LG1 d5015      30.479  23.707  34.042  0.00  0.00    -0.113 SA
ATOM     17  C13 LG1 d5015      31.257  22.183  34.075  0.00  0.00     0.050 A 
ATOM     18  C12 LG1 d5015      30.989  21.442  32.947  0.00  0.00     0.019 A 
ENDBRANCH  13  14
TORSDOF 1
ENDMDL
