REMARK INTER + INTRA:          -4.533
REMARK INTER:                  -4.492
REMARK INTRA:                  -0.041
REMARK UNBOUND:                -0.117
REMARK  1 active torsions:
REMARK  status: ('A' for Active; 'I' for Inactive)
REMARK    1  A    between atoms: C10_13  and  C11_14 
ROOT
ATOM      1  C1  LG1 d5015      26.693  19.600  33.744  0.00  0.00     0.018 C 
ATOM      2  C2  LG1 d5015      26.466  19.965  32.324  0.00  0.00     0.193 C 
ATOM      3  C3  LG1 d5015      27.310  21.076  31.835  0.00  0.00     0.049 A 
ATOM      4  C4  LG1 d5015      27.116  21.590  30.551  0.00  0.00     0.037 A 
ATOM      5  C5  LG1 d5015      27.957  22.597  30.075  0.00  0.00     0.012 A 
ATOM      6  C6  LG1 d5015      28.994  23.083  30.873  0.00  0.00     0.022 A 
ATOM      7  C7  LG1 d5015      29.189  22.566  32.154  0.00  0.00     0.039 A 
ATOM      8  C8  LG1 d5015      28.338  21.575  32.643  0.00  0.00     0.083 A 
ATOM      9  O1  LG1 d5015      28.597  21.101  33.902  0.00  0.00    -0.346 OA
ATOM     10  C9  LG1 d5015      27.432  20.604  34.569  0.00  0.00     0.218 C 
ATOM     11 BR1  LG1 d5015      27.681  23.319  28.349  0.00  0.00    -0.051 Br
ATOM     12  O2  LG1 d5015      25.653  19.408  31.601  0.00  0.00    -0.287 OA
ATOM     13  C10 LG1 d5015      26.234  18.430  34.203  0.00  0.00     0.025 C 
ENDROOT
BRANCH  13  14
ATOM     14  C11 LG1 d5015      26.391  17.967  35.549  0.00  0.00    -0.029 A 
ATOM     15  C14 LG1 d5015      27.185  16.893  35.883  0.00  0.00     0.061 A 
ATOM     16  S1  LG1 d5015      27.173  16.584  37.566  0.00  0.00    -0.113 SA
ATOM     17  C13 LG1 d5015      26.103  17.888  37.855  0.00  0.00     0.050 A 
ATOM     18  C12 LG1 d5015      25.764  18.544  36.692  0.00  0.00     0.019 A 
ENDBRANCH  13  14
TORSDOF 1
ENDMDL
