REMARK INTER + INTRA:          -4.859
REMARK INTER:                  -4.658
REMARK INTRA:                  -0.202
REMARK UNBOUND:                -0.205
REMARK  1 active torsions:
REMARK  status: ('A' for Active; 'I' for Inactive)
REMARK    1  A    between atoms: C1_1  and  N1_10 
ROOT
ATOM      1  C1  LG1 d5015      28.314  21.529  30.501  0.00  0.00     0.056 A 
ATOM      2  C2  LG1 d5015      29.602  21.764  30.982  0.00  0.00    -0.033 A 
ATOM      3  C3  LG1 d5015      30.709  21.341  30.245  0.00  0.00     0.028 A 
ATOM      4  C4  LG1 d5015      30.529  20.684  29.029  0.00  0.00     0.012 A 
ATOM      5  C5  LG1 d5015      29.239  20.448  28.548  0.00  0.00     0.028 A 
ATOM      6  C6  LG1 d5015      28.134  20.870  29.284  0.00  0.00    -0.033 A 
ATOM      7  C7  LG1 d5015      26.766  20.603  28.743  0.00  0.00     0.050 C 
ATOM      8 BR1  LG1 d5015      32.029  20.110  28.033  0.00  0.00    -0.051 Br
ATOM      9  C8  LG1 d5015      29.827  22.468  32.281  0.00  0.00     0.050 C 
ENDROOT
BRANCH   1  10
ATOM     10  N1  LG1 d5015      27.174  21.965  31.257  0.00  0.00    -0.265 N 
ATOM     11  C11 LG1 d5015      26.620  23.242  31.171  0.00  0.00     0.148 C 
ATOM     12  S2  LG1 d5015      26.917  24.481  30.083  0.00  0.00    -0.052 SA
ATOM     13  S1  LG1 d5015      25.362  23.416  32.389  0.00  0.00    -0.090 SA
ATOM     14  C10 LG1 d5015      25.365  21.676  32.818  0.00  0.00     0.185 C 
ATOM     15  C9  LG1 d5015      26.572  21.076  32.159  0.00  0.00     0.239 C 
ATOM     16  O1  LG1 d5015      26.938  19.938  32.441  0.00  0.00    -0.272 OA
ENDBRANCH   1  10
TORSDOF 1
ENDMDL
