MODEL 1
REMARK VINA RESULT:    -4.902      0.000      0.000
REMARK INTER + INTRA:          -5.293
REMARK INTER:                  -5.167
REMARK INTRA:                  -0.126
REMARK UNBOUND:                -0.104
REMARK  1 active torsions:
REMARK  status: ('A' for Active; 'I' for Inactive)
REMARK    1  A    between atoms: C10_13  and  C11_14 
ROOT
ATOM      1  C1  LG1 d5015      27.811  20.537  29.569  0.00  0.00     0.018 C 
ATOM      2  C2  LG1 d5015      29.005  21.256  30.079  0.00  0.00     0.193 C 
ATOM      3  C3  LG1 d5015      28.978  21.535  31.531  0.00  0.00     0.049 A 
ATOM      4  C4  LG1 d5015      29.988  22.302  32.115  0.00  0.00     0.037 A 
ATOM      5  C5  LG1 d5015      29.988  22.510  33.495  0.00  0.00     0.012 A 
ATOM      6  C6  LG1 d5015      28.990  21.945  34.291  0.00  0.00     0.022 A 
ATOM      7  C7  LG1 d5015      27.983  21.175  33.707  0.00  0.00     0.039 A 
ATOM      8  C8  LG1 d5015      27.966  20.983  32.325  0.00  0.00     0.083 A 
ATOM      9  O1  LG1 d5015      26.960  20.202  31.820  0.00  0.00    -0.346 OA
ATOM     10  C9  LG1 d5015      26.618  20.528  30.469  0.00  0.00     0.218 C 
ATOM     11 BR1  LG1 d5015      31.334  23.574  34.289  0.00  0.00    -0.051 Br
ATOM     12  O2  LG1 d5015      29.943  21.600  29.374  0.00  0.00    -0.287 OA
ATOM     13  C10 LG1 d5015      27.859  19.956  28.365  0.00  0.00     0.025 C 
ENDROOT
BRANCH  13  14
ATOM     14  C11 LG1 d5015      26.775  19.235  27.767  0.00  0.00    -0.029 A 
ATOM     15  C14 LG1 d5015      25.996  19.757  26.759  0.00  0.00     0.061 A 
ATOM     16  S1  LG1 d5015      24.785  18.660  26.250  0.00  0.00    -0.113 SA
ATOM     17  C13 LG1 d5015      25.300  17.482  27.379  0.00  0.00     0.050 A 
ATOM     18  C12 LG1 d5015      26.372  17.916  28.126  0.00  0.00     0.019 A 
ENDBRANCH  13  14
TORSDOF 1
ENDMDL
MODEL 2
REMARK VINA RESULT:    -4.380      3.950      6.875
REMARK INTER + INTRA:          -4.740
REMARK INTER:                  -4.618
REMARK INTRA:                  -0.122
REMARK UNBOUND:                -0.104
REMARK  1 active torsions:
REMARK  status: ('A' for Active; 'I' for Inactive)
REMARK    1  A    between atoms: C10_13  and  C11_14 
ROOT
ATOM      1  C1  LG1 d5015      27.985  21.076  31.086  0.00  0.00     0.018 C 
ATOM      2  C2  LG1 d5015      26.856  20.270  30.557  0.00  0.00     0.193 C 
ATOM      3  C3  LG1 d5015      26.920  20.006  29.104  0.00  0.00     0.049 A 
ATOM      4  C4  LG1 d5015      25.863  19.357  28.463  0.00  0.00     0.037 A 
ATOM      5  C5  LG1 d5015      25.959  19.058  27.104  0.00  0.00     0.012 A 
ATOM      6  C6  LG1 d5015      27.107  19.396  26.388  0.00  0.00     0.022 A 
ATOM      7  C7  LG1 d5015      28.165  20.042  27.030  0.00  0.00     0.039 A 
ATOM      8  C8  LG1 d5015      28.066  20.363  28.384  0.00  0.00     0.083 A 
ATOM      9  O1  LG1 d5015      29.147  20.981  28.955  0.00  0.00    -0.346 OA
ATOM     10  C9  LG1 d5015      28.799  21.808  30.070  0.00  0.00     0.218 C 
ATOM     11 BR1  LG1 d5015      24.518  18.205  26.222  0.00  0.00    -0.051 Br
ATOM     12  O2  LG1 d5015      25.939  19.852  31.249  0.00  0.00    -0.287 OA
ATOM     13  C10 LG1 d5015      28.207  21.109  32.406  0.00  0.00     0.025 C 
ENDROOT
BRANCH  13  14
ATOM     14  C11 LG1 d5015      29.262  21.846  33.034  0.00  0.00    -0.029 A 
ATOM     15  C14 LG1 d5015      29.177  23.195  33.297  0.00  0.00     0.061 A 
ATOM     16  S1  LG1 d5015      30.592  23.791  34.054  0.00  0.00    -0.113 SA
ATOM     17  C13 LG1 d5015      31.322  22.244  34.032  0.00  0.00     0.050 A 
ATOM     18  C12 LG1 d5015      30.505  21.295  33.460  0.00  0.00     0.019 A 
ENDBRANCH  13  14
TORSDOF 1
ENDMDL
MODEL 3
REMARK VINA RESULT:    -4.330      4.020      6.501
REMARK INTER + INTRA:          -4.687
REMARK INTER:                  -4.522
REMARK INTRA:                  -0.165
REMARK UNBOUND:                -0.104
REMARK  1 active torsions:
REMARK  status: ('A' for Active; 'I' for Inactive)
REMARK    1  A    between atoms: C10_13  and  C11_14 
ROOT
ATOM      1  C1  LG1 d5015      28.541  20.936  30.611  0.00  0.00     0.018 C 
ATOM      2  C2  LG1 d5015      28.178  20.458  29.254  0.00  0.00     0.193 C 
ATOM      3  C3  LG1 d5015      26.766  20.047  29.107  0.00  0.00     0.049 A 
ATOM      4  C4  LG1 d5015      26.324  19.474  27.912  0.00  0.00     0.037 A 
ATOM      5  C5  LG1 d5015      24.977  19.145  27.760  0.00  0.00     0.012 A 
ATOM      6  C6  LG1 d5015      24.071  19.396  28.792  0.00  0.00     0.022 A 
ATOM      7  C7  LG1 d5015      24.512  19.972  29.984  0.00  0.00     0.039 A 
ATOM      8  C8  LG1 d5015      25.862  20.283  30.149  0.00  0.00     0.083 A 
ATOM      9  O1  LG1 d5015      26.224  20.862  31.337  0.00  0.00    -0.346 OA
ATOM     10  C9  LG1 d5015      27.581  20.594  31.704  0.00  0.00     0.218 C 
ATOM     11 BR1  LG1 d5015      24.377  18.340  26.157  0.00  0.00    -0.051 Br
ATOM     12  O2  LG1 d5015      28.967  20.400  28.322  0.00  0.00    -0.287 OA
ATOM     13  C10 LG1 d5015      29.677  21.622  30.785  0.00  0.00     0.025 C 
ENDROOT
BRANCH  13  14
ATOM     14  C11 LG1 d5015      30.133  22.135  32.042  0.00  0.00    -0.029 A 
ATOM     15  C14 LG1 d5015      29.781  23.379  32.514  0.00  0.00     0.061 A 
ATOM     16  S1  LG1 d5015      30.479  23.707  34.042  0.00  0.00    -0.113 SA
ATOM     17  C13 LG1 d5015      31.257  22.183  34.075  0.00  0.00     0.050 A 
ATOM     18  C12 LG1 d5015      30.989  21.442  32.947  0.00  0.00     0.019 A 
ENDBRANCH  13  14
TORSDOF 1
ENDMDL
MODEL 4
REMARK VINA RESULT:    -4.189      4.202      6.244
REMARK INTER + INTRA:          -4.538
REMARK INTER:                  -4.493
REMARK INTRA:                  -0.044
REMARK UNBOUND:                -0.104
REMARK  1 active torsions:
REMARK  status: ('A' for Active; 'I' for Inactive)
REMARK    1  A    between atoms: C10_13  and  C11_14 
ROOT
ATOM      1  C1  LG1 d5015      26.692  19.599  33.733  0.00  0.00     0.018 C 
ATOM      2  C2  LG1 d5015      26.457  19.963  32.313  0.00  0.00     0.193 C 
ATOM      3  C3  LG1 d5015      27.307  21.064  31.814  0.00  0.00     0.049 A 
ATOM      4  C4  LG1 d5015      27.108  21.577  30.531  0.00  0.00     0.037 A 
ATOM      5  C5  LG1 d5015      27.954  22.575  30.046  0.00  0.00     0.012 A 
ATOM      6  C6  LG1 d5015      29.001  23.053  30.834  0.00  0.00     0.022 A 
ATOM      7  C7  LG1 d5015      29.202  22.538  32.116  0.00  0.00     0.039 A 
ATOM      8  C8  LG1 d5015      28.346  21.556  32.614  0.00  0.00     0.083 A 
ATOM      9  O1  LG1 d5015      28.611  21.082  33.872  0.00  0.00    -0.346 OA
ATOM     10  C9  LG1 d5015      27.446  20.598  34.549  0.00  0.00     0.218 C 
ATOM     11 BR1  LG1 d5015      27.671  23.295  28.320  0.00  0.00    -0.051 Br
ATOM     12  O2  LG1 d5015      25.632  19.411  31.599  0.00  0.00    -0.287 OA
ATOM     13  C10 LG1 d5015      26.226  18.434  34.198  0.00  0.00     0.025 C 
ENDROOT
BRANCH  13  14
ATOM     14  C11 LG1 d5015      26.390  17.973  35.544  0.00  0.00    -0.029 A 
ATOM     15  C14 LG1 d5015      27.182  16.897  35.875  0.00  0.00     0.061 A 
ATOM     16  S1  LG1 d5015      27.179  16.591  37.559  0.00  0.00    -0.113 SA
ATOM     17  C13 LG1 d5015      26.114  17.898  37.851  0.00  0.00     0.050 A 
ATOM     18  C12 LG1 d5015      25.771  18.554  36.690  0.00  0.00     0.019 A 
ENDBRANCH  13  14
TORSDOF 1
ENDMDL
MODEL 5
REMARK VINA RESULT:    -3.977      4.072      5.278
REMARK INTER + INTRA:          -4.313
REMARK INTER:                  -4.209
REMARK INTRA:                  -0.104
REMARK UNBOUND:                -0.104
REMARK  1 active torsions:
REMARK  status: ('A' for Active; 'I' for Inactive)
REMARK    1  A    between atoms: C10_13  and  C11_14 
ROOT
ATOM      1  C1  LG1 d5015      27.344  23.482  30.040  0.00  0.00     0.018 C 
ATOM      2  C2  LG1 d5015      26.462  22.548  30.783  0.00  0.00     0.193 C 
ATOM      3  C3  LG1 d5015      27.076  21.958  31.992  0.00  0.00     0.049 A 
ATOM      4  C4  LG1 d5015      26.393  20.979  32.717  0.00  0.00     0.037 A 
ATOM      5  C5  LG1 d5015      26.953  20.472  33.890  0.00  0.00     0.012 A 
ATOM      6  C6  LG1 d5015      28.183  20.947  34.345  0.00  0.00     0.022 A 
ATOM      7  C7  LG1 d5015      28.863  21.928  33.621  0.00  0.00     0.039 A 
ATOM      8  C8  LG1 d5015      28.319  22.423  32.436  0.00  0.00     0.083 A 
ATOM      9  O1  LG1 d5015      29.031  23.396  31.786  0.00  0.00    -0.346 OA
ATOM     10  C9  LG1 d5015      28.799  23.416  30.374  0.00  0.00     0.218 C 
ATOM     11 BR1  LG1 d5015      26.048  19.123  34.860  0.00  0.00    -0.051 Br
ATOM     12  O2  LG1 d5015      25.322  22.273  30.439  0.00  0.00    -0.287 OA
ATOM     13  C10 LG1 d5015      26.810  24.308  29.132  0.00  0.00     0.025 C 
ENDROOT
BRANCH  13  14
ATOM     14  C11 LG1 d5015      27.555  25.253  28.355  0.00  0.00    -0.029 A 
ATOM     15  C14 LG1 d5015      27.814  25.079  27.014  0.00  0.00     0.061 A 
ATOM     16  S1  LG1 d5015      28.723  26.374  26.362  0.00  0.00    -0.113 SA
ATOM     17  C13 LG1 d5015      28.773  27.172  27.874  0.00  0.00     0.050 A 
ATOM     18  C12 LG1 d5015      28.111  26.467  28.854  0.00  0.00     0.019 A 
ENDBRANCH  13  14
TORSDOF 1
ENDMDL
