REMARK INTER + INTRA:          -4.572
REMARK INTER:                  -4.404
REMARK INTRA:                  -0.169
REMARK UNBOUND:                -0.128
REMARK  1 active torsions:
REMARK  status: ('A' for Active; 'I' for Inactive)
REMARK    1  A    between atoms: C10_13  and  C11_14 
ROOT
ATOM      1  C1  LG1 d5015      28.511  20.940  30.596  0.00  0.00     0.018 C 
ATOM      2  C2  LG1 d5015      28.164  20.459  29.235  0.00  0.00     0.193 C 
ATOM      3  C3  LG1 d5015      26.785  19.945  29.101  0.00  0.00     0.049 A 
ATOM      4  C4  LG1 d5015      26.369  19.360  27.904  0.00  0.00     0.037 A 
ATOM      5  C5  LG1 d5015      25.048  18.932  27.765  0.00  0.00     0.012 A 
ATOM      6  C6  LG1 d5015      24.142  19.097  28.814  0.00  0.00     0.022 A 
ATOM      7  C7  LG1 d5015      24.557  19.686  30.009  0.00  0.00     0.039 A 
ATOM      8  C8  LG1 d5015      25.882  20.095  30.161  0.00  0.00     0.083 A 
ATOM      9  O1  LG1 d5015      26.218  20.680  31.353  0.00  0.00    -0.346 OA
ATOM     10  C9  LG1 d5015      27.597  20.510  31.696  0.00  0.00     0.218 C 
ATOM     11 BR1  LG1 d5015      24.486  18.111  26.157  0.00  0.00    -0.051 Br
ATOM     12  O2  LG1 d5015      28.941  20.476  28.291  0.00  0.00    -0.287 OA
ATOM     13  C10 LG1 d5015      29.595  21.708  30.765  0.00  0.00     0.025 C 
ENDROOT
BRANCH  13  14
ATOM     14  C11 LG1 d5015      30.031  22.233  32.024  0.00  0.00    -0.029 A 
ATOM     15  C14 LG1 d5015      29.625  23.458  32.504  0.00  0.00     0.061 A 
ATOM     16  S1  LG1 d5015      30.312  23.808  34.033  0.00  0.00    -0.113 SA
ATOM     17  C13 LG1 d5015      31.156  22.319  34.056  0.00  0.00     0.050 A 
ATOM     18  C12 LG1 d5015      30.918  21.572  32.923  0.00  0.00     0.019 A 
ENDBRANCH  13  14
TORSDOF 1
ENDMDL
