REMARK INTER + INTRA:          -5.297
REMARK INTER:                  -5.190
REMARK INTRA:                  -0.107
REMARK UNBOUND:                -0.168
REMARK  1 active torsions:
REMARK  status: ('A' for Active; 'I' for Inactive)
REMARK    1  A    between atoms: C10_13  and  C11_14 
ROOT
ATOM      1  C1  LG1 d5015      27.845  20.530  29.606  0.00  0.00     0.018 C 
ATOM      2  C2  LG1 d5015      29.035  21.258  30.113  0.00  0.00     0.193 C 
ATOM      3  C3  LG1 d5015      29.007  21.539  31.564  0.00  0.00     0.049 A 
ATOM      4  C4  LG1 d5015      30.012  22.314  32.146  0.00  0.00     0.037 A 
ATOM      5  C5  LG1 d5015      30.011  22.524  33.526  0.00  0.00     0.012 A 
ATOM      6  C6  LG1 d5015      29.018  21.955  34.324  0.00  0.00     0.022 A 
ATOM      7  C7  LG1 d5015      28.016  21.177  33.741  0.00  0.00     0.039 A 
ATOM      8  C8  LG1 d5015      27.999  20.982  32.360  0.00  0.00     0.083 A 
ATOM      9  O1  LG1 d5015      26.998  20.194  31.858  0.00  0.00    -0.346 OA
ATOM     10  C9  LG1 d5015      26.653  20.515  30.506  0.00  0.00     0.218 C 
ATOM     11 BR1  LG1 d5015      31.352  23.599  34.317  0.00  0.00    -0.051 Br
ATOM     12  O2  LG1 d5015      29.970  21.605  29.407  0.00  0.00    -0.287 OA
ATOM     13  C10 LG1 d5015      27.896  19.946  28.402  0.00  0.00     0.025 C 
ENDROOT
BRANCH  13  14
ATOM     14  C11 LG1 d5015      26.817  19.217  27.806  0.00  0.00    -0.029 A 
ATOM     15  C14 LG1 d5015      26.070  19.710  26.760  0.00  0.00     0.061 A 
ATOM     16  S1  LG1 d5015      24.855  18.610  26.265  0.00  0.00    -0.113 SA
ATOM     17  C13 LG1 d5015      25.326  17.469  27.451  0.00  0.00     0.050 A 
ATOM     18  C12 LG1 d5015      26.387  17.919  28.206  0.00  0.00     0.019 A 
ENDBRANCH  13  14
TORSDOF 1
ENDMDL
