MODEL 1
REMARK VINA RESULT:    -4.845      0.000      0.000
REMARK INTER + INTRA:          -5.297
REMARK INTER:                  -5.190
REMARK INTRA:                  -0.107
REMARK UNBOUND:                -0.168
REMARK  1 active torsions:
REMARK  status: ('A' for Active; 'I' for Inactive)
REMARK    1  A    between atoms: C10_13  and  C11_14 
ROOT
ATOM      1  C1  LG1 d5015      27.845  20.530  29.606  0.00  0.00     0.018 C 
ATOM      2  C2  LG1 d5015      29.035  21.258  30.113  0.00  0.00     0.193 C 
ATOM      3  C3  LG1 d5015      29.007  21.539  31.564  0.00  0.00     0.049 A 
ATOM      4  C4  LG1 d5015      30.012  22.314  32.146  0.00  0.00     0.037 A 
ATOM      5  C5  LG1 d5015      30.011  22.524  33.526  0.00  0.00     0.012 A 
ATOM      6  C6  LG1 d5015      29.018  21.955  34.324  0.00  0.00     0.022 A 
ATOM      7  C7  LG1 d5015      28.016  21.177  33.741  0.00  0.00     0.039 A 
ATOM      8  C8  LG1 d5015      27.999  20.982  32.360  0.00  0.00     0.083 A 
ATOM      9  O1  LG1 d5015      26.998  20.194  31.858  0.00  0.00    -0.346 OA
ATOM     10  C9  LG1 d5015      26.653  20.515  30.506  0.00  0.00     0.218 C 
ATOM     11 BR1  LG1 d5015      31.352  23.599  34.317  0.00  0.00    -0.051 Br
ATOM     12  O2  LG1 d5015      29.970  21.605  29.407  0.00  0.00    -0.287 OA
ATOM     13  C10 LG1 d5015      27.896  19.946  28.402  0.00  0.00     0.025 C 
ENDROOT
BRANCH  13  14
ATOM     14  C11 LG1 d5015      26.817  19.217  27.806  0.00  0.00    -0.029 A 
ATOM     15  C14 LG1 d5015      26.070  19.710  26.760  0.00  0.00     0.061 A 
ATOM     16  S1  LG1 d5015      24.855  18.610  26.265  0.00  0.00    -0.113 SA
ATOM     17  C13 LG1 d5015      25.326  17.469  27.451  0.00  0.00     0.050 A 
ATOM     18  C12 LG1 d5015      26.387  17.919  28.206  0.00  0.00     0.019 A 
ENDBRANCH  13  14
TORSDOF 1
ENDMDL
MODEL 2
REMARK VINA RESULT:    -4.243      4.023      6.508
REMARK INTER + INTRA:          -4.659
REMARK INTER:                  -4.495
REMARK INTRA:                  -0.165
REMARK UNBOUND:                -0.168
REMARK  1 active torsions:
REMARK  status: ('A' for Active; 'I' for Inactive)
REMARK    1  A    between atoms: C10_13  and  C11_14 
ROOT
ATOM      1  C1  LG1 d5015      28.548  20.965  30.637  0.00  0.00     0.018 C 
ATOM      2  C2  LG1 d5015      28.206  20.460  29.284  0.00  0.00     0.193 C 
ATOM      3  C3  LG1 d5015      26.790  20.071  29.116  0.00  0.00     0.049 A 
ATOM      4  C4  LG1 d5015      26.364  19.476  27.926  0.00  0.00     0.037 A 
ATOM      5  C5  LG1 d5015      25.014  19.167  27.753  0.00  0.00     0.012 A 
ATOM      6  C6  LG1 d5015      24.091  19.458  28.758  0.00  0.00     0.022 A 
ATOM      7  C7  LG1 d5015      24.517  20.056  29.945  0.00  0.00     0.039 A 
ATOM      8  C8  LG1 d5015      25.868  20.348  30.133  0.00  0.00     0.083 A 
ATOM      9  O1  LG1 d5015      26.215  20.949  31.313  0.00  0.00    -0.346 OA
ATOM     10  C9  LG1 d5015      27.559  20.667  31.717  0.00  0.00     0.218 C 
ATOM     11 BR1  LG1 d5015      24.435  18.333  26.157  0.00  0.00    -0.051 Br
ATOM     12  O2  LG1 d5015      29.013  20.365  28.371  0.00  0.00    -0.287 OA
ATOM     13  C10 LG1 d5015      29.692  21.636  30.818  0.00  0.00     0.025 C 
ENDROOT
BRANCH  13  14
ATOM     14  C11 LG1 d5015      30.130  22.171  32.072  0.00  0.00    -0.029 A 
ATOM     15  C14 LG1 d5015      29.789  23.431  32.506  0.00  0.00     0.061 A 
ATOM     16  S1  LG1 d5015      30.461  23.786  34.040  0.00  0.00    -0.113 SA
ATOM     17  C13 LG1 d5015      31.212  22.251  34.128  0.00  0.00     0.050 A 
ATOM     18  C12 LG1 d5015      30.954  21.486  33.012  0.00  0.00     0.019 A 
ENDBRANCH  13  14
TORSDOF 1
ENDMDL
MODEL 3
REMARK VINA RESULT:    -4.130      4.197      6.213
REMARK INTER + INTRA:          -4.539
REMARK INTER:                  -4.506
REMARK INTRA:                  -0.034
REMARK UNBOUND:                -0.168
REMARK  1 active torsions:
REMARK  status: ('A' for Active; 'I' for Inactive)
REMARK    1  A    between atoms: C10_13  and  C11_14 
ROOT
ATOM      1  C1  LG1 d5015      26.696  19.618  33.732  0.00  0.00     0.018 C 
ATOM      2  C2  LG1 d5015      26.470  19.984  32.312  0.00  0.00     0.193 C 
ATOM      3  C3  LG1 d5015      27.321  21.089  31.821  0.00  0.00     0.049 A 
ATOM      4  C4  LG1 d5015      27.129  21.604  30.538  0.00  0.00     0.037 A 
ATOM      5  C5  LG1 d5015      27.976  22.605  30.061  0.00  0.00     0.012 A 
ATOM      6  C6  LG1 d5015      29.017  23.084  30.857  0.00  0.00     0.022 A 
ATOM      7  C7  LG1 d5015      29.211  22.566  32.138  0.00  0.00     0.039 A 
ATOM      8  C8  LG1 d5015      28.354  21.581  32.629  0.00  0.00     0.083 A 
ATOM      9  O1  LG1 d5015      28.611  21.105  33.887  0.00  0.00    -0.346 OA
ATOM     10  C9  LG1 d5015      27.443  20.616  34.555  0.00  0.00     0.218 C 
ATOM     11 BR1  LG1 d5015      27.703  23.329  28.335  0.00  0.00    -0.051 Br
ATOM     12  O2  LG1 d5015      25.651  19.432  31.591  0.00  0.00    -0.287 OA
ATOM     13  C10 LG1 d5015      26.230  18.450  34.192  0.00  0.00     0.025 C 
ENDROOT
BRANCH  13  14
ATOM     14  C11 LG1 d5015      26.386  17.987  35.538  0.00  0.00    -0.029 A 
ATOM     15  C14 LG1 d5015      27.164  16.901  35.869  0.00  0.00     0.061 A 
ATOM     16  S1  LG1 d5015      27.153  16.592  37.552  0.00  0.00    -0.113 SA
ATOM     17  C13 LG1 d5015      26.106  17.914  37.844  0.00  0.00     0.050 A 
ATOM     18  C12 LG1 d5015      25.773  18.574  36.682  0.00  0.00     0.019 A 
ENDBRANCH  13  14
TORSDOF 1
ENDMDL
MODEL 4
REMARK VINA RESULT:    -4.052      1.514      2.856
REMARK INTER + INTRA:          -4.457
REMARK INTER:                  -4.289
REMARK INTRA:                  -0.168
REMARK UNBOUND:                -0.168
REMARK  1 active torsions:
REMARK  status: ('A' for Active; 'I' for Inactive)
REMARK    1  A    between atoms: C10_13  and  C11_14 
ROOT
ATOM      1  C1  LG1 d5015      26.270  20.021  29.757  0.00  0.00     0.018 C 
ATOM      2  C2  LG1 d5015      26.750  20.436  31.098  0.00  0.00     0.193 C 
ATOM      3  C3  LG1 d5015      28.157  20.887  31.132  0.00  0.00     0.049 A 
ATOM      4  C4  LG1 d5015      28.763  21.198  32.351  0.00  0.00     0.037 A 
ATOM      5  C5  LG1 d5015      30.073  21.680  32.369  0.00  0.00     0.012 A 
ATOM      6  C6  LG1 d5015      30.771  21.862  31.175  0.00  0.00     0.022 A 
ATOM      7  C7  LG1 d5015      30.163  21.554  29.957  0.00  0.00     0.039 A 
ATOM      8  C8  LG1 d5015      28.863  21.051  29.934  0.00  0.00     0.083 A 
ATOM      9  O1  LG1 d5015      28.321  20.787  28.704  0.00  0.00    -0.346 OA
ATOM     10  C9  LG1 d5015      27.328  19.756  28.735  0.00  0.00     0.218 C 
ATOM     11 BR1  LG1 d5015      30.911  22.074  34.018  0.00  0.00    -0.051 Br
ATOM     12  O2  LG1 d5015      26.055  20.414  32.104  0.00  0.00    -0.287 OA
ATOM     13  C10 LG1 d5015      24.954  19.902  29.537  0.00  0.00     0.025 C 
ENDROOT
BRANCH  13  14
ATOM     14  C11 LG1 d5015      24.371  19.510  28.289  0.00  0.00    -0.029 A 
ATOM     15  C14 LG1 d5015      24.100  18.200  27.969  0.00  0.00     0.061 A 
ATOM     16  S1  LG1 d5015      23.406  18.048  26.412  0.00  0.00    -0.113 SA
ATOM     17  C13 LG1 d5015      23.465  19.740  26.161  0.00  0.00     0.050 A 
ATOM     18  C12 LG1 d5015      24.002  20.403  27.242  0.00  0.00     0.019 A 
ENDBRANCH  13  14
TORSDOF 1
ENDMDL
MODEL 5
REMARK VINA RESULT:    -4.002      4.180      5.495
REMARK INTER + INTRA:          -4.405
REMARK INTER:                  -4.236
REMARK INTRA:                  -0.168
REMARK UNBOUND:                -0.168
REMARK  1 active torsions:
REMARK  status: ('A' for Active; 'I' for Inactive)
REMARK    1  A    between atoms: C10_13  and  C11_14 
ROOT
ATOM      1  C1  LG1 d5015      26.660  23.120  30.768  0.00  0.00     0.018 C 
ATOM      2  C2  LG1 d5015      27.305  22.229  29.771  0.00  0.00     0.193 C 
ATOM      3  C3  LG1 d5015      28.702  21.866  30.087  0.00  0.00     0.049 A 
ATOM      4  C4  LG1 d5015      29.457  21.126  29.175  0.00  0.00     0.037 A 
ATOM      5  C5  LG1 d5015      30.755  20.736  29.507  0.00  0.00     0.012 A 
ATOM      6  C6  LG1 d5015      31.295  21.074  30.748  0.00  0.00     0.022 A 
ATOM      7  C7  LG1 d5015      30.539  21.811  31.661  0.00  0.00     0.039 A 
ATOM      8  C8  LG1 d5015      29.249  22.222  31.326  0.00  0.00     0.083 A 
ATOM      9  O1  LG1 d5015      28.556  22.927  32.275  0.00  0.00    -0.346 OA
ATOM     10  C9  LG1 d5015      27.581  23.814  31.718  0.00  0.00     0.218 C 
ATOM     11 BR1  LG1 d5015      31.794  19.760  28.263  0.00  0.00    -0.051 Br
ATOM     12  O2  LG1 d5015      26.744  21.820  28.765  0.00  0.00    -0.287 OA
ATOM     13  C10 LG1 d5015      25.328  23.256  30.764  0.00  0.00     0.025 C 
ENDROOT
BRANCH  13  14
ATOM     14  C11 LG1 d5015      24.593  24.082  31.674  0.00  0.00    -0.029 A 
ATOM     15  C14 LG1 d5015      24.285  25.396  31.407  0.00  0.00     0.061 A 
ATOM     16  S1  LG1 d5015      23.400  26.120  32.681  0.00  0.00    -0.113 SA
ATOM     17  C13 LG1 d5015      23.427  24.674  33.596  0.00  0.00     0.050 A 
ATOM     18  C12 LG1 d5015      24.095  23.663  32.942  0.00  0.00     0.019 A 
ENDBRANCH  13  14
TORSDOF 1
ENDMDL
