REMARK INTER + INTRA:          -5.287
REMARK INTER:                  -5.154
REMARK INTRA:                  -0.133
REMARK UNBOUND:                -0.169
REMARK  1 active torsions:
REMARK  status: ('A' for Active; 'I' for Inactive)
REMARK    1  A    between atoms: C10_13  and  C11_14 
ROOT
ATOM      1  C1  LG1 d5015      27.824  20.547  29.572  0.00  0.00     0.018 C 
ATOM      2  C2  LG1 d5015      29.014  21.268  30.091  0.00  0.00     0.193 C 
ATOM      3  C3  LG1 d5015      28.980  21.539  31.543  0.00  0.00     0.049 A 
ATOM      4  C4  LG1 d5015      29.984  22.307  32.136  0.00  0.00     0.037 A 
ATOM      5  C5  LG1 d5015      29.978  22.508  33.517  0.00  0.00     0.012 A 
ATOM      6  C6  LG1 d5015      28.979  21.936  34.306  0.00  0.00     0.022 A 
ATOM      7  C7  LG1 d5015      27.977  21.165  33.713  0.00  0.00     0.039 A 
ATOM      8  C8  LG1 d5015      27.967  20.979  32.331  0.00  0.00     0.083 A 
ATOM      9  O1  LG1 d5015      26.965  20.198  31.818  0.00  0.00    -0.346 OA
ATOM     10  C9  LG1 d5015      26.628  20.529  30.467  0.00  0.00     0.218 C 
ATOM     11 BR1  LG1 d5015      31.317  23.573  34.322  0.00  0.00    -0.051 Br
ATOM     12  O2  LG1 d5015      29.953  21.618  29.391  0.00  0.00    -0.287 OA
ATOM     13  C10 LG1 d5015      27.879  19.972  28.365  0.00  0.00     0.025 C 
ENDROOT
BRANCH  13  14
ATOM     14  C11 LG1 d5015      26.801  19.250  27.759  0.00  0.00    -0.029 A 
ATOM     15  C14 LG1 d5015      26.015  19.780  26.760  0.00  0.00     0.061 A 
ATOM     16  S1  LG1 d5015      24.812  18.680  26.237  0.00  0.00    -0.113 SA
ATOM     17  C13 LG1 d5015      25.340  17.489  27.349  0.00  0.00     0.050 A 
ATOM     18  C12 LG1 d5015      26.410  17.922  28.100  0.00  0.00     0.019 A 
ENDBRANCH  13  14
TORSDOF 1
ENDMDL
