REMARK INTER + INTRA:          -5.293
REMARK INTER:                  -5.148
REMARK INTRA:                  -0.145
REMARK UNBOUND:                -0.128
REMARK  1 active torsions:
REMARK  status: ('A' for Active; 'I' for Inactive)
REMARK    1  A    between atoms: C10_13  and  C11_14 
ROOT
ATOM      1  C1  LG1 d5015      27.807  20.545  29.626  0.00  0.00     0.018 C 
ATOM      2  C2  LG1 d5015      29.008  21.259  30.129  0.00  0.00     0.193 C 
ATOM      3  C3  LG1 d5015      28.988  21.546  31.579  0.00  0.00     0.049 A 
ATOM      4  C4  LG1 d5015      30.004  22.310  32.155  0.00  0.00     0.037 A 
ATOM      5  C5  LG1 d5015      30.010  22.524  33.534  0.00  0.00     0.012 A 
ATOM      6  C6  LG1 d5015      29.012  21.971  34.336  0.00  0.00     0.022 A 
ATOM      7  C7  LG1 d5015      27.998  21.204  33.760  0.00  0.00     0.039 A 
ATOM      8  C8  LG1 d5015      27.975  21.005  32.379  0.00  0.00     0.083 A 
ATOM      9  O1  LG1 d5015      26.962  20.228  31.882  0.00  0.00    -0.346 OA
ATOM     10  C9  LG1 d5015      26.617  20.549  30.530  0.00  0.00     0.218 C 
ATOM     11 BR1  LG1 d5015      31.367  23.584  34.318  0.00  0.00    -0.051 Br
ATOM     12  O2  LG1 d5015      29.945  21.592  29.418  0.00  0.00    -0.287 OA
ATOM     13  C10 LG1 d5015      27.847  19.957  28.425  0.00  0.00     0.025 C 
ENDROOT
BRANCH  13  14
ATOM     14  C11 LG1 d5015      26.757  19.240  27.835  0.00  0.00    -0.029 A 
ATOM     15  C14 LG1 d5015      25.946  19.781  26.862  0.00  0.00     0.061 A 
ATOM     16  S1  LG1 d5015      24.734  18.683  26.354  0.00  0.00    -0.113 SA
ATOM     17  C13 LG1 d5015      25.293  17.480  27.435  0.00  0.00     0.050 A 
ATOM     18  C12 LG1 d5015      26.379  17.906  28.166  0.00  0.00     0.019 A 
ENDBRANCH  13  14
TORSDOF 1
ENDMDL
