REMARK  1 active torsions:
REMARK  status: ('A' for Active; 'I' for Inactive)
REMARK    1  A    between atoms: C7_7  and  C4_4 
ROOT
ATOM      1  C1  LG1 d5015      24.066   9.495  59.940  0.00  0.00    -0.004 C 
ATOM      2  C2  LG1 d5015      23.737   9.601  58.447  0.00  0.00    -0.001 C 
ATOM      3  C3  LG1 d5015      22.952  10.916  58.083  0.00  0.00    -0.030 C 
ATOM      4  C4  LG1 d5015      22.876  10.721  56.532  0.00  0.00     0.063 C 
ATOM      5  C5  LG1 d5015      24.270  10.124  56.129  0.00  0.00     0.013 C 
ATOM      6  C6  LG1 d5015      24.921   9.575  57.450  0.00  0.00     0.006 C 
ATOM      7  C9  LG1 d5015      23.748  12.228  58.412  0.00  0.00     0.016 C 
ATOM      8  C10 LG1 d5015      21.608  10.830  58.840  0.00  0.00     0.011 C 
ATOM      9  C11 LG1 d5015      21.834  10.699  60.372  0.00  0.00     0.007 C 
ATOM     10  C12 LG1 d5015      22.717   9.476  60.732  0.00  0.00     0.002 C 
ATOM     11  C13 LG1 d5015      22.922   9.350  62.287  0.00  0.00    -0.016 C 
ATOM     12  C14 LG1 d5015      23.844   8.096  62.574  0.00  0.00    -0.068 C 
ATOM     13  C15 LG1 d5015      23.576   7.183  63.490  0.00  0.00     0.053 C 
ATOM     14  C16 LG1 d5015      22.456   7.328  64.407  0.00  0.00     0.149 C 
ATOM     15  C17 LG1 d5015      21.615   8.601  64.392  0.00  0.00     0.084 C 
ATOM     16  C18 LG1 d5015      21.531   9.147  62.945  0.00  0.00     0.022 C 
ATOM     17  O2  LG1 d5015      22.220   6.451  65.257  0.00  0.00    -0.293 OA
ATOM     18  C19 LG1 d5015      25.093   7.925  61.716  0.00  0.00     0.035 C 
ATOM     19  C20 LG1 d5015      24.813   8.166  60.220  0.00  0.00     0.010 C 
ATOM     20  C21 LG1 d5015      23.665  10.597  62.903  0.00  0.00     0.020 C 
ENDROOT
BRANCH   4  21
ATOM     21  C7  LG1 d5015      22.449  11.970  55.743  0.00  0.00     0.128 C 
ATOM     22  O1  LG1 d5015      21.807  11.856  54.721  0.00  0.00    -0.298 OA
ATOM     23  C8  LG1 d5015      22.823  13.320  56.248  0.00  0.00     0.091 C 
ENDBRANCH   4  21
TORSDOF 1
