REMARK INTER + INTRA:         -10.444
REMARK INTER:                 -10.242
REMARK INTRA:                  -0.202
REMARK UNBOUND:                 0.098
REMARK  1 active torsions:
REMARK  status: ('A' for Active; 'I' for Inactive)
REMARK    1  A    between atoms: C7_7  and  C4_4 
ROOT
ATOM      1  C1  LG1 d5015      23.269   9.251  59.400  0.00  0.00    -0.004 C 
ATOM      2  C2  LG1 d5015      23.640   9.167  60.885  0.00  0.00    -0.001 C 
ATOM      3  C3  LG1 d5015      22.405   9.370  61.839  0.00  0.00    -0.030 C 
ATOM      4  C4  LG1 d5015      23.127   9.139  63.208  0.00  0.00     0.063 C 
ATOM      5  C5  LG1 d5015      24.131   7.963  62.944  0.00  0.00     0.013 C 
ATOM      6  C6  LG1 d5015      24.297   7.857  61.385  0.00  0.00     0.006 C 
ATOM      7  C9  LG1 d5015      21.283   8.291  61.644  0.00  0.00     0.016 C 
ATOM      8  C10 LG1 d5015      21.900  10.807  61.577  0.00  0.00     0.011 C 
ATOM      9  C11 LG1 d5015      21.514  11.003  60.085  0.00  0.00     0.007 C 
ATOM     10  C12 LG1 d5015      22.690  10.679  59.127  0.00  0.00     0.002 C 
ATOM     11  C13 LG1 d5015      22.287  10.898  57.622  0.00  0.00    -0.016 C 
ATOM     12  C14 LG1 d5015      23.526  10.531  56.709  0.00  0.00    -0.068 C 
ATOM     13  C15 LG1 d5015      23.957  11.289  55.718  0.00  0.00     0.053 C 
ATOM     14  C16 LG1 d5015      23.237  12.483  55.302  0.00  0.00     0.149 C 
ATOM     15  C17 LG1 d5015      21.900  12.834  55.948  0.00  0.00     0.084 C 
ATOM     16  C18 LG1 d5015      21.913  12.392  57.433  0.00  0.00     0.022 C 
ATOM     17  O2  LG1 d5015      23.667  13.185  54.370  0.00  0.00    -0.293 OA
ATOM     18  C19 LG1 d5015      24.278   9.241  57.022  0.00  0.00     0.035 C 
ATOM     19  C20 LG1 d5015      24.539   9.067  58.531  0.00  0.00     0.010 C 
ATOM     20  C21 LG1 d5015      21.107   9.955  57.168  0.00  0.00     0.020 C 
ENDROOT
BRANCH   4  21
ATOM     21  C7  LG1 d5015      22.187   8.936  64.409  0.00  0.00     0.128 C 
ATOM     22  O1  LG1 d5015      21.509   9.856  64.814  0.00  0.00    -0.298 OA
ATOM     23  C8  LG1 d5015      22.111   7.601  65.064  0.00  0.00     0.091 C 
ENDBRANCH   4  21
TORSDOF 1
ENDMDL
