MODEL 1
REMARK VINA RESULT:   -12.063      0.000      0.000
REMARK INTER + INTRA:         -12.707
REMARK INTER:                 -12.512
REMARK INTRA:                  -0.195
REMARK UNBOUND:                 0.062
REMARK  1 active torsions:
REMARK  status: ('A' for Active; 'I' for Inactive)
REMARK    1  A    between atoms: C7_7  and  C4_4 
ROOT
ATOM      1  C1  LG1 d5015      23.968   9.255  60.131  0.00  0.00    -0.004 C 
ATOM      2  C2  LG1 d5015      23.640   9.371  58.638  0.00  0.00    -0.001 C 
ATOM      3  C3  LG1 d5015      22.771  10.638  58.297  0.00  0.00    -0.030 C 
ATOM      4  C4  LG1 d5015      22.716  10.472  56.742  0.00  0.00     0.063 C 
ATOM      5  C5  LG1 d5015      24.149   9.978  56.335  0.00  0.00     0.013 C 
ATOM      6  C6  LG1 d5015      24.828   9.445  57.649  0.00  0.00     0.006 C 
ATOM      7  C9  LG1 d5015      23.475  11.993  58.658  0.00  0.00     0.016 C 
ATOM      8  C10 LG1 d5015      21.431  10.446  59.043  0.00  0.00     0.011 C 
ATOM      9  C11 LG1 d5015      21.658  10.298  60.573  0.00  0.00     0.007 C 
ATOM     10  C12 LG1 d5015      22.619   9.129  60.913  0.00  0.00     0.002 C 
ATOM     11  C13 LG1 d5015      22.824   8.984  62.467  0.00  0.00    -0.016 C 
ATOM     12  C14 LG1 d5015      23.826   7.789  62.733  0.00  0.00    -0.068 C 
ATOM     13  C15 LG1 d5015      23.615   6.841  63.628  0.00  0.00     0.053 C 
ATOM     14  C16 LG1 d5015      22.484   6.891  64.541  0.00  0.00     0.149 C 
ATOM     15  C17 LG1 d5015      21.559   8.105  64.547  0.00  0.00     0.084 C 
ATOM     16  C18 LG1 d5015      21.446   8.675  63.111  0.00  0.00     0.022 C 
ATOM     17  O2  LG1 d5015      22.302   5.982  65.371  0.00  0.00    -0.293 OA
ATOM     18  C19 LG1 d5015      25.088   7.720  61.880  0.00  0.00     0.035 C 
ATOM     19  C20 LG1 d5015      24.801   7.974  60.388  0.00  0.00     0.010 C 
ATOM     20  C21 LG1 d5015      23.479  10.265  63.114  0.00  0.00     0.020 C 
ENDROOT
BRANCH   4  21
ATOM     21  C7  LG1 d5015      22.210  11.706  55.976  0.00  0.00     0.128 C 
ATOM     22  O1  LG1 d5015      21.085  12.119  56.161  0.00  0.00    -0.298 OA
ATOM     23  C8  LG1 d5015      23.115  12.394  55.014  0.00  0.00     0.091 C 
ENDBRANCH   4  21
TORSDOF 1
ENDMDL
MODEL 2
REMARK VINA RESULT:    -9.927      1.471      6.957
REMARK INTER + INTRA:         -10.445
REMARK INTER:                 -10.242
REMARK INTRA:                  -0.203
REMARK UNBOUND:                 0.062
REMARK  1 active torsions:
REMARK  status: ('A' for Active; 'I' for Inactive)
REMARK    1  A    between atoms: C7_7  and  C4_4 
ROOT
ATOM      1  C1  LG1 d5015      23.284   9.229  59.403  0.00  0.00    -0.004 C 
ATOM      2  C2  LG1 d5015      23.661   9.155  60.887  0.00  0.00    -0.001 C 
ATOM      3  C3  LG1 d5015      22.428   9.358  61.845  0.00  0.00    -0.030 C 
ATOM      4  C4  LG1 d5015      23.156   9.139  63.212  0.00  0.00     0.063 C 
ATOM      5  C5  LG1 d5015      24.167   7.967  62.951  0.00  0.00     0.013 C 
ATOM      6  C6  LG1 d5015      24.326   7.852  61.392  0.00  0.00     0.006 C 
ATOM      7  C9  LG1 d5015      21.311   8.271  61.661  0.00  0.00     0.016 C 
ATOM      8  C10 LG1 d5015      21.914  10.790  61.576  0.00  0.00     0.011 C 
ATOM      9  C11 LG1 d5015      21.521  10.975  60.084  0.00  0.00     0.007 C 
ATOM     10  C12 LG1 d5015      22.696  10.651  59.124  0.00  0.00     0.002 C 
ATOM     11  C13 LG1 d5015      22.285  10.859  57.619  0.00  0.00    -0.016 C 
ATOM     12  C14 LG1 d5015      23.523  10.493  56.704  0.00  0.00    -0.068 C 
ATOM     13  C15 LG1 d5015      23.946  11.249  55.706  0.00  0.00     0.053 C 
ATOM     14  C16 LG1 d5015      23.217  12.436  55.286  0.00  0.00     0.149 C 
ATOM     15  C17 LG1 d5015      21.881  12.783  55.935  0.00  0.00     0.084 C 
ATOM     16  C18 LG1 d5015      21.902  12.350  57.422  0.00  0.00     0.022 C 
ATOM     17  O2  LG1 d5015      23.639  13.135  54.347  0.00  0.00    -0.293 OA
ATOM     18  C19 LG1 d5015      24.283   9.210  57.021  0.00  0.00     0.035 C 
ATOM     19  C20 LG1 d5015      24.551   9.046  58.530  0.00  0.00     0.010 C 
ATOM     20  C21 LG1 d5015      21.108   9.907  57.176  0.00  0.00     0.020 C 
ENDROOT
BRANCH   4  21
ATOM     21  C7  LG1 d5015      22.223   8.938  64.418  0.00  0.00     0.128 C 
ATOM     22  O1  LG1 d5015      21.536   9.855  64.815  0.00  0.00    -0.298 OA
ATOM     23  C8  LG1 d5015      22.163   7.608  65.087  0.00  0.00     0.091 C 
ENDBRANCH   4  21
TORSDOF 1
ENDMDL
