REMARK INTER + INTRA:         -12.707
REMARK INTER:                 -12.512
REMARK INTRA:                  -0.195
REMARK UNBOUND:                 0.928
REMARK  1 active torsions:
REMARK  status: ('A' for Active; 'I' for Inactive)
REMARK    1  A    between atoms: C7_7  and  C4_4 
ROOT
ATOM      1  C1  LG1 d5015      23.979   9.265  60.107  0.00  0.00    -0.004 C 
ATOM      2  C2  LG1 d5015      23.650   9.374  58.614  0.00  0.00    -0.001 C 
ATOM      3  C3  LG1 d5015      22.772  10.635  58.270  0.00  0.00    -0.030 C 
ATOM      4  C4  LG1 d5015      22.719  10.464  56.715  0.00  0.00     0.063 C 
ATOM      5  C5  LG1 d5015      24.154   9.978  56.310  0.00  0.00     0.013 C 
ATOM      6  C6  LG1 d5015      24.838   9.454  57.625  0.00  0.00     0.006 C 
ATOM      7  C9  LG1 d5015      23.469  11.995  58.628  0.00  0.00     0.016 C 
ATOM      8  C10 LG1 d5015      21.435  10.437  59.017  0.00  0.00     0.011 C 
ATOM      9  C11 LG1 d5015      21.662  10.294  60.547  0.00  0.00     0.007 C 
ATOM     10  C12 LG1 d5015      22.631   9.132  60.890  0.00  0.00     0.002 C 
ATOM     11  C13 LG1 d5015      22.837   8.992  62.444  0.00  0.00    -0.016 C 
ATOM     12  C14 LG1 d5015      23.847   7.804  62.714  0.00  0.00    -0.068 C 
ATOM     13  C15 LG1 d5015      23.642   6.857  63.611  0.00  0.00     0.053 C 
ATOM     14  C16 LG1 d5015      22.510   6.902  64.524  0.00  0.00     0.149 C 
ATOM     15  C17 LG1 d5015      21.578   8.110  64.527  0.00  0.00     0.084 C 
ATOM     16  C18 LG1 d5015      21.461   8.676  63.090  0.00  0.00     0.022 C 
ATOM     17  O2  LG1 d5015      22.335   5.994  65.356  0.00  0.00    -0.293 OA
ATOM     18  C19 LG1 d5015      25.109   7.741  61.860  0.00  0.00     0.035 C 
ATOM     19  C20 LG1 d5015      24.820   7.989  60.367  0.00  0.00     0.010 C 
ATOM     20  C21 LG1 d5015      23.484  10.279  63.087  0.00  0.00     0.020 C 
ENDROOT
BRANCH   4  21
ATOM     21  C7  LG1 d5015      22.205  11.693  55.946  0.00  0.00     0.128 C 
ATOM     22  O1  LG1 d5015      21.076  12.097  56.127  0.00  0.00    -0.298 OA
ATOM     23  C8  LG1 d5015      23.107  12.387  54.986  0.00  0.00     0.091 C 
ENDBRANCH   4  21
TORSDOF 1
ENDMDL
