MODEL 1
REMARK VINA RESULT:   -12.882      0.000      0.000
REMARK INTER + INTRA:         -12.707
REMARK INTER:                 -12.512
REMARK INTRA:                  -0.195
REMARK UNBOUND:                 0.928
REMARK  1 active torsions:
REMARK  status: ('A' for Active; 'I' for Inactive)
REMARK    1  A    between atoms: C7_7  and  C4_4 
ROOT
ATOM      1  C1  LG1 d5015      23.979   9.265  60.107  0.00  0.00    -0.004 C 
ATOM      2  C2  LG1 d5015      23.650   9.374  58.614  0.00  0.00    -0.001 C 
ATOM      3  C3  LG1 d5015      22.772  10.635  58.270  0.00  0.00    -0.030 C 
ATOM      4  C4  LG1 d5015      22.719  10.464  56.715  0.00  0.00     0.063 C 
ATOM      5  C5  LG1 d5015      24.154   9.978  56.310  0.00  0.00     0.013 C 
ATOM      6  C6  LG1 d5015      24.838   9.454  57.625  0.00  0.00     0.006 C 
ATOM      7  C9  LG1 d5015      23.469  11.995  58.628  0.00  0.00     0.016 C 
ATOM      8  C10 LG1 d5015      21.435  10.437  59.017  0.00  0.00     0.011 C 
ATOM      9  C11 LG1 d5015      21.662  10.294  60.547  0.00  0.00     0.007 C 
ATOM     10  C12 LG1 d5015      22.631   9.132  60.890  0.00  0.00     0.002 C 
ATOM     11  C13 LG1 d5015      22.837   8.992  62.444  0.00  0.00    -0.016 C 
ATOM     12  C14 LG1 d5015      23.847   7.804  62.714  0.00  0.00    -0.068 C 
ATOM     13  C15 LG1 d5015      23.642   6.857  63.611  0.00  0.00     0.053 C 
ATOM     14  C16 LG1 d5015      22.510   6.902  64.524  0.00  0.00     0.149 C 
ATOM     15  C17 LG1 d5015      21.578   8.110  64.527  0.00  0.00     0.084 C 
ATOM     16  C18 LG1 d5015      21.461   8.676  63.090  0.00  0.00     0.022 C 
ATOM     17  O2  LG1 d5015      22.335   5.994  65.356  0.00  0.00    -0.293 OA
ATOM     18  C19 LG1 d5015      25.109   7.741  61.860  0.00  0.00     0.035 C 
ATOM     19  C20 LG1 d5015      24.820   7.989  60.367  0.00  0.00     0.010 C 
ATOM     20  C21 LG1 d5015      23.484  10.279  63.087  0.00  0.00     0.020 C 
ENDROOT
BRANCH   4  21
ATOM     21  C7  LG1 d5015      22.205  11.693  55.946  0.00  0.00     0.128 C 
ATOM     22  O1  LG1 d5015      21.076  12.097  56.127  0.00  0.00    -0.298 OA
ATOM     23  C8  LG1 d5015      23.107  12.387  54.986  0.00  0.00     0.091 C 
ENDBRANCH   4  21
TORSDOF 1
ENDMDL
MODEL 2
REMARK VINA RESULT:   -10.741      1.473      6.955
REMARK INTER + INTRA:         -10.440
REMARK INTER:                 -10.237
REMARK INTRA:                  -0.203
REMARK UNBOUND:                 0.928
REMARK  1 active torsions:
REMARK  status: ('A' for Active; 'I' for Inactive)
REMARK    1  A    between atoms: C7_7  and  C4_4 
ROOT
ATOM      1  C1  LG1 d5015      23.286   9.238  59.406  0.00  0.00    -0.004 C 
ATOM      2  C2  LG1 d5015      23.657   9.168  60.891  0.00  0.00    -0.001 C 
ATOM      3  C3  LG1 d5015      22.419   9.364  61.843  0.00  0.00    -0.030 C 
ATOM      4  C4  LG1 d5015      23.143   9.150  63.214  0.00  0.00     0.063 C 
ATOM      5  C5  LG1 d5015      24.160   7.983  62.959  0.00  0.00     0.013 C 
ATOM      6  C6  LG1 d5015      24.328   7.868  61.400  0.00  0.00     0.006 C 
ATOM      7  C9  LG1 d5015      21.309   8.270  61.655  0.00  0.00     0.016 C 
ATOM      8  C10 LG1 d5015      21.898  10.793  61.572  0.00  0.00     0.011 C 
ATOM      9  C11 LG1 d5015      21.511  10.974  60.078  0.00  0.00     0.007 C 
ATOM     10  C12 LG1 d5015      22.691  10.657  59.123  0.00  0.00     0.002 C 
ATOM     11  C13 LG1 d5015      22.286  10.861  57.616  0.00  0.00    -0.016 C 
ATOM     12  C14 LG1 d5015      23.530  10.502  56.706  0.00  0.00    -0.068 C 
ATOM     13  C15 LG1 d5015      23.952  11.259  55.710  0.00  0.00     0.053 C 
ATOM     14  C16 LG1 d5015      23.219  12.441  55.286  0.00  0.00     0.149 C 
ATOM     15  C17 LG1 d5015      21.878  12.781  55.929  0.00  0.00     0.084 C 
ATOM     16  C18 LG1 d5015      21.895  12.350  57.417  0.00  0.00     0.022 C 
ATOM     17  O2  LG1 d5015      23.641  13.142  54.349  0.00  0.00    -0.293 OA
ATOM     18  C19 LG1 d5015      24.296   9.223  57.028  0.00  0.00     0.035 C 
ATOM     19  C20 LG1 d5015      24.558   9.062  58.538  0.00  0.00     0.010 C 
ATOM     20  C21 LG1 d5015      21.117   9.902  57.168  0.00  0.00     0.020 C 
ENDROOT
BRANCH   4  21
ATOM     21  C7  LG1 d5015      22.205   8.945  64.416  0.00  0.00     0.128 C 
ATOM     22  O1  LG1 d5015      21.512   9.858  64.812  0.00  0.00    -0.298 OA
ATOM     23  C8  LG1 d5015      22.148   7.615  65.084  0.00  0.00     0.091 C 
ENDBRANCH   4  21
TORSDOF 1
ENDMDL
