REMARK INTER + INTRA:         -12.699
REMARK INTER:                 -12.503
REMARK INTRA:                  -0.196
REMARK UNBOUND:                -0.149
REMARK  1 active torsions:
REMARK  status: ('A' for Active; 'I' for Inactive)
REMARK    1  A    between atoms: C7_7  and  C4_4 
ROOT
ATOM      1  C1  LG1 d5015      23.990   9.271  60.123  0.00  0.00    -0.004 C 
ATOM      2  C2  LG1 d5015      23.657   9.384  58.631  0.00  0.00    -0.001 C 
ATOM      3  C3  LG1 d5015      22.780  10.646  58.291  0.00  0.00    -0.030 C 
ATOM      4  C4  LG1 d5015      22.721  10.478  56.736  0.00  0.00     0.063 C 
ATOM      5  C5  LG1 d5015      24.156   9.991  56.326  0.00  0.00     0.013 C 
ATOM      6  C6  LG1 d5015      24.842   9.463  57.638  0.00  0.00     0.006 C 
ATOM      7  C9  LG1 d5015      23.479  12.005  58.650  0.00  0.00     0.016 C 
ATOM      8  C10 LG1 d5015      21.444  10.448  59.042  0.00  0.00     0.011 C 
ATOM      9  C11 LG1 d5015      21.676  10.303  60.572  0.00  0.00     0.007 C 
ATOM     10  C12 LG1 d5015      22.644   9.139  60.910  0.00  0.00     0.002 C 
ATOM     11  C13 LG1 d5015      22.854   8.997  62.463  0.00  0.00    -0.016 C 
ATOM     12  C14 LG1 d5015      23.864   7.807  62.727  0.00  0.00    -0.068 C 
ATOM     13  C15 LG1 d5015      23.660   6.858  63.624  0.00  0.00     0.053 C 
ATOM     14  C16 LG1 d5015      22.531   6.903  64.540  0.00  0.00     0.149 C 
ATOM     15  C17 LG1 d5015      21.600   8.113  64.548  0.00  0.00     0.084 C 
ATOM     16  C18 LG1 d5015      21.480   8.681  63.112  0.00  0.00     0.022 C 
ATOM     17  O2  LG1 d5015      22.357   5.995  65.371  0.00  0.00    -0.293 OA
ATOM     18  C19 LG1 d5015      25.123   7.743  61.871  0.00  0.00     0.035 C 
ATOM     19  C20 LG1 d5015      24.830   7.994  60.379  0.00  0.00     0.010 C 
ATOM     20  C21 LG1 d5015      23.504  10.281  63.106  0.00  0.00     0.020 C 
ENDROOT
BRANCH   4  21
ATOM     21  C7  LG1 d5015      22.207  11.709  55.971  0.00  0.00     0.128 C 
ATOM     22  O1  LG1 d5015      21.079  12.113  56.154  0.00  0.00    -0.298 OA
ATOM     23  C8  LG1 d5015      23.108  12.404  55.011  0.00  0.00     0.091 C 
ENDBRANCH   4  21
TORSDOF 1
ENDMDL
