MODEL 1
REMARK VINA RESULT:   -12.114      0.000      0.000
REMARK INTER + INTRA:         -12.701
REMARK INTER:                 -12.505
REMARK INTRA:                  -0.196
REMARK UNBOUND:                 0.121
REMARK  1 active torsions:
REMARK  status: ('A' for Active; 'I' for Inactive)
REMARK    1  A    between atoms: C7_7  and  C4_4 
ROOT
ATOM      1  C1  LG1 d5015      23.999   9.256  60.138  0.00  0.00    -0.004 C 
ATOM      2  C2  LG1 d5015      23.671   9.369  58.645  0.00  0.00    -0.001 C 
ATOM      3  C3  LG1 d5015      22.791  10.629  58.303  0.00  0.00    -0.030 C 
ATOM      4  C4  LG1 d5015      22.739  10.462  56.747  0.00  0.00     0.063 C 
ATOM      5  C5  LG1 d5015      24.176   9.979  56.342  0.00  0.00     0.013 C 
ATOM      6  C6  LG1 d5015      24.859   9.453  57.656  0.00  0.00     0.006 C 
ATOM      7  C9  LG1 d5015      23.485  11.989  58.664  0.00  0.00     0.016 C 
ATOM      8  C10 LG1 d5015      21.454  10.427  59.048  0.00  0.00     0.011 C 
ATOM      9  C11 LG1 d5015      21.680  10.280  60.579  0.00  0.00     0.007 C 
ATOM     10  C12 LG1 d5015      22.650   9.120  60.919  0.00  0.00     0.002 C 
ATOM     11  C13 LG1 d5015      22.856   8.976  62.473  0.00  0.00    -0.016 C 
ATOM     12  C14 LG1 d5015      23.868   7.789  62.740  0.00  0.00    -0.068 C 
ATOM     13  C15 LG1 d5015      23.664   6.839  63.635  0.00  0.00     0.053 C 
ATOM     14  C16 LG1 d5015      22.531   6.881  64.547  0.00  0.00     0.149 C 
ATOM     15  C17 LG1 d5015      21.597   8.087  64.553  0.00  0.00     0.084 C 
ATOM     16  C18 LG1 d5015      21.480   8.656  63.117  0.00  0.00     0.022 C 
ATOM     17  O2  LG1 d5015      22.357   5.971  65.377  0.00  0.00    -0.293 OA
ATOM     18  C19 LG1 d5015      25.131   7.730  61.888  0.00  0.00     0.035 C 
ATOM     19  C20 LG1 d5015      24.842   7.981  60.395  0.00  0.00     0.010 C 
ATOM     20  C21 LG1 d5015      23.500  10.262  63.120  0.00  0.00     0.020 C 
ENDROOT
BRANCH   4  21
ATOM     21  C7  LG1 d5015      22.224  11.692  55.981  0.00  0.00     0.128 C 
ATOM     22  O1  LG1 d5015      21.093  12.091  56.159  0.00  0.00    -0.298 OA
ATOM     23  C8  LG1 d5015      23.128  12.393  55.027  0.00  0.00     0.091 C 
ENDBRANCH   4  21
TORSDOF 1
ENDMDL
MODEL 2
REMARK VINA RESULT:    -9.978      1.477      6.958
REMARK INTER + INTRA:         -10.440
REMARK INTER:                 -10.237
REMARK INTRA:                  -0.203
REMARK UNBOUND:                 0.121
REMARK  1 active torsions:
REMARK  status: ('A' for Active; 'I' for Inactive)
REMARK    1  A    between atoms: C7_7  and  C4_4 
ROOT
ATOM      1  C1  LG1 d5015      23.290   9.239  59.416  0.00  0.00    -0.004 C 
ATOM      2  C2  LG1 d5015      23.655   9.175  60.903  0.00  0.00    -0.001 C 
ATOM      3  C3  LG1 d5015      22.412   9.367  61.849  0.00  0.00    -0.030 C 
ATOM      4  C4  LG1 d5015      23.131   9.160  63.224  0.00  0.00     0.063 C 
ATOM      5  C5  LG1 d5015      24.156   7.998  62.976  0.00  0.00     0.013 C 
ATOM      6  C6  LG1 d5015      24.330   7.880  61.418  0.00  0.00     0.006 C 
ATOM      7  C9  LG1 d5015      21.309   8.268  61.660  0.00  0.00     0.016 C 
ATOM      8  C10 LG1 d5015      21.886  10.793  61.572  0.00  0.00     0.011 C 
ATOM      9  C11 LG1 d5015      21.504  10.969  60.076  0.00  0.00     0.007 C 
ATOM     10  C12 LG1 d5015      22.689  10.654  59.127  0.00  0.00     0.002 C 
ATOM     11  C13 LG1 d5015      22.289  10.853  57.618  0.00  0.00    -0.016 C 
ATOM     12  C14 LG1 d5015      23.539  10.497  56.714  0.00  0.00    -0.068 C 
ATOM     13  C15 LG1 d5015      23.962  11.254  55.718  0.00  0.00     0.053 C 
ATOM     14  C16 LG1 d5015      23.225  12.432  55.287  0.00  0.00     0.149 C 
ATOM     15  C17 LG1 d5015      21.879  12.767  55.924  0.00  0.00     0.084 C 
ATOM     16  C18 LG1 d5015      21.892  12.339  57.413  0.00  0.00     0.022 C 
ATOM     17  O2  LG1 d5015      23.648  13.132  54.350  0.00  0.00    -0.293 OA
ATOM     18  C19 LG1 d5015      24.310   9.223  57.042  0.00  0.00     0.035 C 
ATOM     19  C20 LG1 d5015      24.567   9.067  58.554  0.00  0.00     0.010 C 
ATOM     20  C21 LG1 d5015      21.127   9.887  57.167  0.00  0.00     0.020 C 
ENDROOT
BRANCH   4  21
ATOM     21  C7  LG1 d5015      22.189   8.954  64.422  0.00  0.00     0.128 C 
ATOM     22  O1  LG1 d5015      21.488   9.864  64.811  0.00  0.00    -0.298 OA
ATOM     23  C8  LG1 d5015      22.139   7.626  65.095  0.00  0.00     0.091 C 
ENDBRANCH   4  21
TORSDOF 1
ENDMDL
