REMARK INTER + INTRA:          -7.226
REMARK INTER:                  -7.767
REMARK INTRA:                   0.541
REMARK UNBOUND:                 0.051
REMARK  1 active torsions:
REMARK  status: ('A' for Active; 'I' for Inactive)
REMARK    1  A    between atoms: C10_13  and  C11_14 
ROOT
ATOM      1  C1  LG1 d5015      22.538   9.779  60.757  0.00  0.00     0.018 C 
ATOM      2  C2  LG1 d5015      22.028  10.620  59.645  0.00  0.00     0.193 C 
ATOM      3  C3  LG1 d5015      22.959  10.758  58.505  0.00  0.00     0.049 A 
ATOM      4  C4  LG1 d5015      22.647  11.613  57.446  0.00  0.00     0.037 A 
ATOM      5  C5  LG1 d5015      23.502  11.691  56.346  0.00  0.00     0.012 A 
ATOM      6  C6  LG1 d5015      24.660  10.913  56.298  0.00  0.00     0.022 A 
ATOM      7  C7  LG1 d5015      24.969  10.056  57.356  0.00  0.00     0.039 A 
ATOM      8  C8  LG1 d5015      24.129   9.990  58.467  0.00  0.00     0.083 A 
ATOM      9  O1  LG1 d5015      24.484   9.116  59.461  0.00  0.00    -0.346 OA
ATOM     10  C9  LG1 d5015      24.008   9.508  60.753  0.00  0.00     0.218 C 
ATOM     11 BR1  LG1 d5015      23.101  12.870  54.922  0.00  0.00    -0.051 Br
ATOM     12  O2  LG1 d5015      20.934  11.163  59.653  0.00  0.00    -0.287 OA
ATOM     13  C10 LG1 d5015      21.684   9.323  61.681  0.00  0.00     0.025 C 
ENDROOT
BRANCH  13  14
ATOM     14  C11 LG1 d5015      22.055   8.504  62.797  0.00  0.00    -0.029 A 
ATOM     15  C14 LG1 d5015      23.139   7.656  62.774  0.00  0.00     0.061 A 
ATOM     16  S1  LG1 d5015      23.327   6.814  64.252  0.00  0.00    -0.113 SA
ATOM     17  C13 LG1 d5015      21.956   7.584  64.928  0.00  0.00     0.050 A 
ATOM     18  C12 LG1 d5015      21.369   8.463  64.046  0.00  0.00     0.019 A 
ENDBRANCH  13  14
TORSDOF 1
ENDMDL
