REMARK INTER + INTRA:          -7.569
REMARK INTER:                  -7.393
REMARK INTRA:                  -0.176
REMARK UNBOUND:                -0.193
REMARK  1 active torsions:
REMARK  status: ('A' for Active; 'I' for Inactive)
REMARK    1  A    between atoms: C1_1  and  N1_10 
ROOT
ATOM      1  C1  LG1 d5015      22.840   9.630  60.562  0.00  0.00     0.056 A 
ATOM      2  C2  LG1 d5015      23.054  11.006  60.640  0.00  0.00    -0.033 A 
ATOM      3  C3  LG1 d5015      23.030  11.782  59.481  0.00  0.00     0.028 A 
ATOM      4  C4  LG1 d5015      22.791  11.182  58.245  0.00  0.00     0.012 A 
ATOM      5  C5  LG1 d5015      22.578   9.804  58.167  0.00  0.00     0.028 A 
ATOM      6  C6  LG1 d5015      22.603   9.030  59.326  0.00  0.00    -0.033 A 
ATOM      7  C7  LG1 d5015      22.371   7.558  59.210  0.00  0.00     0.050 C 
ATOM      8 BR1  LG1 d5015      22.760  12.234  56.674  0.00  0.00    -0.051 Br
ATOM      9  C8  LG1 d5015      23.310  11.677  61.951  0.00  0.00     0.050 C 
ENDROOT
BRANCH   1  10
ATOM     10  N1  LG1 d5015      22.864   8.831  61.755  0.00  0.00    -0.265 N 
ATOM     11  C11 LG1 d5015      23.980   8.122  62.200  0.00  0.00     0.148 C 
ATOM     12  S2  LG1 d5015      25.572   8.168  61.678  0.00  0.00    -0.052 SA
ATOM     13  S1  LG1 d5015      23.532   7.138  63.588  0.00  0.00    -0.090 SA
ATOM     14  C10 LG1 d5015      21.920   7.902  63.766  0.00  0.00     0.185 C 
ATOM     15  C9  LG1 d5015      21.701   8.725  62.530  0.00  0.00     0.239 C 
ATOM     16  O1  LG1 d5015      20.595   9.203  62.286  0.00  0.00    -0.272 OA
ENDBRANCH   1  10
TORSDOF 1
ENDMDL
