REMARK INTER + INTRA:          -7.164
REMARK INTER:                  -7.215
REMARK INTRA:                   0.051
REMARK UNBOUND:                 0.051
REMARK  1 active torsions:
REMARK  status: ('A' for Active; 'I' for Inactive)
REMARK    1  A    between atoms: C10_13  and  C11_14 
ROOT
ATOM      1  C1  LG1 d5015      24.026   8.917  60.085  0.00  0.00     0.018 C 
ATOM      2  C2  LG1 d5015      24.179   7.940  61.192  0.00  0.00     0.193 C 
ATOM      3  C3  LG1 d5015      23.219   8.118  62.301  0.00  0.00     0.049 A 
ATOM      4  C4  LG1 d5015      23.328   7.336  63.453  0.00  0.00     0.037 A 
ATOM      5  C5  LG1 d5015      22.381   7.468  64.470  0.00  0.00     0.012 A 
ATOM      6  C6  LG1 d5015      21.324   8.369  64.335  0.00  0.00     0.022 A 
ATOM      7  C7  LG1 d5015      21.214   9.147  63.181  0.00  0.00     0.039 A 
ATOM      8  C8  LG1 d5015      22.169   9.035  62.171  0.00  0.00     0.083 A 
ATOM      9  O1  LG1 d5015      21.991   9.816  61.060  0.00  0.00    -0.346 OA
ATOM     10  C9  LG1 d5015      23.216  10.134  60.392  0.00  0.00     0.218 C 
ATOM     11 BR1  LG1 d5015      22.540   6.435  66.047  0.00  0.00    -0.051 Br
ATOM     12  O2  LG1 d5015      25.023   7.056  61.205  0.00  0.00    -0.287 OA
ATOM     13  C10 LG1 d5015      24.608   8.669  58.905  0.00  0.00     0.025 C 
ENDROOT
BRANCH  13  14
ATOM     14  C11 LG1 d5015      24.532   9.532  57.764  0.00  0.00    -0.029 A 
ATOM     15  C14 LG1 d5015      23.347   9.835  57.134  0.00  0.00     0.061 A 
ATOM     16  S1  LG1 d5015      23.577  10.891  55.806  0.00  0.00    -0.113 SA
ATOM     17  C13 LG1 d5015      25.267  10.945  56.072  0.00  0.00     0.050 A 
ATOM     18  C12 LG1 d5015      25.646  10.176  57.149  0.00  0.00     0.019 A 
ENDBRANCH  13  14
TORSDOF 1
ENDMDL
