MODEL 1
REMARK VINA RESULT:    -8.405      0.000      0.000
REMARK INTER + INTRA:          -8.701
REMARK INTER:                  -8.669
REMARK INTRA:                  -0.032
REMARK UNBOUND:                 0.195
REMARK  1 active torsions:
REMARK  status: ('A' for Active; 'I' for Inactive)
REMARK    1  A    between atoms: C10_13  and  C11_14 
ROOT
ATOM      1  C1  LG1 d5015      22.668   9.947  58.974  0.00  0.00     0.018 C 
ATOM      2  C2  LG1 d5015      22.823   8.746  59.831  0.00  0.00     0.193 C 
ATOM      3  C3  LG1 d5015      22.525   8.972  61.261  0.00  0.00     0.049 A 
ATOM      4  C4  LG1 d5015      22.741   7.952  62.191  0.00  0.00     0.037 A 
ATOM      5  C5  LG1 d5015      22.400   8.154  63.529  0.00  0.00     0.012 A 
ATOM      6  C6  LG1 d5015      21.837   9.364  63.937  0.00  0.00     0.022 A 
ATOM      7  C7  LG1 d5015      21.619  10.381  63.007  0.00  0.00     0.039 A 
ATOM      8  C8  LG1 d5015      21.977  10.193  61.672  0.00  0.00     0.083 A 
ATOM      9  O1  LG1 d5015      21.719  11.225  60.809  0.00  0.00    -0.346 OA
ATOM     10  C9  LG1 d5015      22.608  11.258  59.687  0.00  0.00     0.218 C 
ATOM     11 BR1  LG1 d5015      22.718   6.789  64.799  0.00  0.00    -0.051 Br
ATOM     12  O2  LG1 d5015      23.169   7.652  59.410  0.00  0.00    -0.287 OA
ATOM     13  C10 LG1 d5015      22.596   9.801  57.645  0.00  0.00     0.025 C 
ENDROOT
BRANCH  13  14
ATOM     14  C11 LG1 d5015      22.446  10.881  56.716  0.00  0.00    -0.029 A 
ATOM     15  C14 LG1 d5015      21.286  11.613  56.603  0.00  0.00     0.061 A 
ATOM     16  S1  LG1 d5015      21.410  12.834  55.409  0.00  0.00    -0.113 SA
ATOM     17  C13 LG1 d5015      23.021  12.387  55.041  0.00  0.00     0.050 A 
ATOM     18  C12 LG1 d5015      23.452  11.330  55.812  0.00  0.00     0.019 A 
ENDBRANCH  13  14
TORSDOF 1
ENDMDL
MODEL 2
REMARK VINA RESULT:    -8.130      1.192      2.300
REMARK INTER + INTRA:          -8.410
REMARK INTER:                  -8.575
REMARK INTRA:                   0.165
REMARK UNBOUND:                 0.195
REMARK  1 active torsions:
REMARK  status: ('A' for Active; 'I' for Inactive)
REMARK    1  A    between atoms: C10_13  and  C11_14 
ROOT
ATOM      1  C1  LG1 d5015      22.491   9.917  59.542  0.00  0.00     0.018 C 
ATOM      2  C2  LG1 d5015      21.996   9.695  60.924  0.00  0.00     0.193 C 
ATOM      3  C3  LG1 d5015      22.736   8.665  61.682  0.00  0.00     0.049 A 
ATOM      4  C4  LG1 d5015      22.301   8.282  62.952  0.00  0.00     0.037 A 
ATOM      5  C5  LG1 d5015      23.041   7.353  63.685  0.00  0.00     0.012 A 
ATOM      6  C6  LG1 d5015      24.215   6.815  63.158  0.00  0.00     0.022 A 
ATOM      7  C7  LG1 d5015      24.652   7.201  61.889  0.00  0.00     0.039 A 
ATOM      8  C8  LG1 d5015      23.905   8.113  61.143  0.00  0.00     0.083 A 
ATOM      9  O1  LG1 d5015      24.399   8.460  59.914  0.00  0.00    -0.346 OA
ATOM     10  C9  LG1 d5015      23.382   8.853  58.987  0.00  0.00     0.218 C 
ATOM     11 BR1  LG1 d5015      22.441   6.807  65.394  0.00  0.00    -0.051 Br
ATOM     12  O2  LG1 d5015      21.054  10.303  61.412  0.00  0.00    -0.287 OA
ATOM     13  C10 LG1 d5015      22.122  11.020  58.881  0.00  0.00     0.025 C 
ENDROOT
BRANCH  13  14
ATOM     14  C11 LG1 d5015      22.533  11.345  57.548  0.00  0.00    -0.029 A 
ATOM     15  C14 LG1 d5015      21.650  11.732  56.566  0.00  0.00     0.061 A 
ATOM     16  S1  LG1 d5015      22.439  12.053  55.081  0.00  0.00    -0.113 SA
ATOM     17  C13 LG1 d5015      23.969  11.675  55.749  0.00  0.00     0.050 A 
ATOM     18  C12 LG1 d5015      23.877  11.313  57.075  0.00  0.00     0.019 A 
ENDBRANCH  13  14
TORSDOF 1
ENDMDL
MODEL 3
REMARK VINA RESULT:    -7.905      3.970      6.833
REMARK INTER + INTRA:          -8.172
REMARK INTER:                  -8.149
REMARK INTRA:                  -0.023
REMARK UNBOUND:                 0.195
REMARK  1 active torsions:
REMARK  status: ('A' for Active; 'I' for Inactive)
REMARK    1  A    between atoms: C10_13  and  C11_14 
ROOT
ATOM      1  C1  LG1 d5015      23.091   9.705  61.066  0.00  0.00     0.018 C 
ATOM      2  C2  LG1 d5015      23.250  10.971  60.307  0.00  0.00     0.193 C 
ATOM      3  C3  LG1 d5015      22.783  10.908  58.906  0.00  0.00     0.049 A 
ATOM      4  C4  LG1 d5015      22.979  11.995  58.053  0.00  0.00     0.037 A 
ATOM      5  C5  LG1 d5015      22.482  11.950  56.750  0.00  0.00     0.012 A 
ATOM      6  C6  LG1 d5015      21.783  10.829  56.302  0.00  0.00     0.022 A 
ATOM      7  C7  LG1 d5015      21.584   9.743  57.157  0.00  0.00     0.039 A 
ATOM      8  C8  LG1 d5015      22.098   9.774  58.453  0.00  0.00     0.083 A 
ATOM      9  O1  LG1 d5015      21.851   8.683  59.244  0.00  0.00    -0.346 OA
ATOM     10  C9  LG1 d5015      22.850   8.478  60.249  0.00  0.00     0.218 C 
ATOM     11 BR1  LG1 d5015      22.771  13.407  55.579  0.00  0.00    -0.051 Br
ATOM     12  O2  LG1 d5015      23.727  11.992  60.782  0.00  0.00    -0.287 OA
ATOM     13  C10 LG1 d5015      23.175   9.725  62.402  0.00  0.00     0.025 C 
ENDROOT
BRANCH  13  14
ATOM     14  C11 LG1 d5015      23.038   8.573  63.241  0.00  0.00    -0.029 A 
ATOM     15  C14 LG1 d5015      21.990   8.407  64.118  0.00  0.00     0.061 A 
ATOM     16  S1  LG1 d5015      22.102   6.933  64.981  0.00  0.00    -0.113 SA
ATOM     17  C13 LG1 d5015      23.555   6.511  64.182  0.00  0.00     0.050 A 
ATOM     18  C12 LG1 d5015      23.944   7.474  63.277  0.00  0.00     0.019 A 
ENDBRANCH  13  14
TORSDOF 1
ENDMDL
