REMARK INTER + INTRA:          -8.121
REMARK INTER:                  -8.051
REMARK INTRA:                  -0.069
REMARK UNBOUND:                -0.027
REMARK  1 active torsions:
REMARK  status: ('A' for Active; 'I' for Inactive)
REMARK    1  A    between atoms: C10_13  and  C11_14 
ROOT
ATOM      1  C1  LG1 d5015      22.904   9.718  61.201  0.00  0.00     0.018 C 
ATOM      2  C2  LG1 d5015      23.085  10.986  60.451  0.00  0.00     0.193 C 
ATOM      3  C3  LG1 d5015      22.650  10.929  59.040  0.00  0.00     0.049 A 
ATOM      4  C4  LG1 d5015      22.870  12.020  58.195  0.00  0.00     0.037 A 
ATOM      5  C5  LG1 d5015      22.403  11.981  56.881  0.00  0.00     0.012 A 
ATOM      6  C6  LG1 d5015      21.709  10.864  56.413  0.00  0.00     0.022 A 
ATOM      7  C7  LG1 d5015      21.486   9.777  57.259  0.00  0.00     0.039 A 
ATOM      8  C8  LG1 d5015      21.971   9.800  58.567  0.00  0.00     0.083 A 
ATOM      9  O1  LG1 d5015      21.702   8.707  59.348  0.00  0.00    -0.346 OA
ATOM     10  C9  LG1 d5015      22.676   8.494  60.374  0.00  0.00     0.218 C 
ATOM     11 BR1  LG1 d5015      22.724  13.442  55.722  0.00  0.00    -0.051 Br
ATOM     12  O2  LG1 d5015      23.555  12.002  60.941  0.00  0.00    -0.287 OA
ATOM     13  C10 LG1 d5015      22.957   9.732  62.539  0.00  0.00     0.025 C 
ENDROOT
BRANCH  13  14
ATOM     14  C11 LG1 d5015      22.796   8.578  63.371  0.00  0.00    -0.029 A 
ATOM     15  C14 LG1 d5015      21.678   8.363  64.145  0.00  0.00     0.061 A 
ATOM     16  S1  LG1 d5015      21.777   6.899  65.026  0.00  0.00    -0.113 SA
ATOM     17  C13 LG1 d5015      23.319   6.546  64.372  0.00  0.00     0.050 A 
ATOM     18  C12 LG1 d5015      23.747   7.524  63.502  0.00  0.00     0.019 A 
ENDBRANCH  13  14
TORSDOF 1
ENDMDL
