REMARK INTER + INTRA:         -11.075
REMARK INTER:                 -10.589
REMARK INTRA:                  -0.486
REMARK UNBOUND:                -0.358
REMARK  2 active torsions:
REMARK  status: ('A' for Active; 'I' for Inactive)
REMARK    1  A    between atoms: C1_1  and  N1_15 
REMARK    2  A    between atoms: C7_9  and  C4_4 
ROOT
ATOM      1  C1  LG1 d5015      23.019   9.569  60.649  0.00  0.00     0.141 A 
ATOM      2  C2  LG1 d5015      23.568  10.851  60.669  0.00  0.00     0.187 A 
ATOM      3  C3  LG1 d5015      23.425  11.688  59.563  0.00  0.00     0.175 A 
ATOM      4  C4  LG1 d5015      22.734  11.243  58.436  0.00  0.00     0.131 A 
ATOM      5  C5  LG1 d5015      22.186   9.961  58.415  0.00  0.00     0.175 A 
ATOM      6  C6  LG1 d5015      22.328   9.125  59.521  0.00  0.00     0.187 A 
ATOM      7  F1  LG1 d5015      21.796   7.895  59.487  0.00  0.00    -0.200 F 
ATOM      8  F2  LG1 d5015      21.520   9.525  57.335  0.00  0.00    -0.202 F 
ATOM      9  F6  LG1 d5015      23.956  12.920  59.593  0.00  0.00    -0.202 F 
ATOM     10  F7  LG1 d5015      24.234  11.292  61.746  0.00  0.00    -0.200 F 
ENDROOT
BRANCH   1  11
ATOM     11  N1  LG1 d5015      23.160   8.738  61.745  0.00  0.00    -0.232 N 
ATOM     12  N2  LG1 d5015      22.158   8.628  62.634  0.00  0.00    -0.172 NA
ATOM     13  C10 LG1 d5015      22.641   7.765  63.530  0.00  0.00     0.053 A 
ATOM     14  C9  LG1 d5015      23.942   7.327  63.218  0.00  0.00     0.055 A 
ATOM     15  C11 LG1 d5015      21.818   7.376  64.689  0.00  0.00     0.072 C 
ATOM     16  C8  LG1 d5015      24.252   7.980  62.050  0.00  0.00     0.035 A 
ATOM     17  C12 LG1 d5015      25.473   7.936  61.222  0.00  0.00     0.070 C 
ENDBRANCH   1  11
BRANCH   4  18
ATOM     18  C7  LG1 d5015      22.583  12.139  57.252  0.00  0.00     0.423 C 
ATOM     19  F4  LG1 d5015      22.481  13.461  57.577  0.00  0.00    -0.166 F 
ATOM     20  F3  LG1 d5015      21.474  11.871  56.501  0.00  0.00    -0.166 F 
ATOM     21  F5  LG1 d5015      23.637  12.053  56.391  0.00  0.00    -0.166 F 
ENDBRANCH   4  18
TORSDOF 2
ENDMDL
