REMARK INTER + INTRA:          -8.701
REMARK INTER:                  -8.669
REMARK INTRA:                  -0.032
REMARK UNBOUND:                 0.195
REMARK  1 active torsions:
REMARK  status: ('A' for Active; 'I' for Inactive)
REMARK    1  A    between atoms: C10_13  and  C11_14 
ROOT
ATOM      1  C1  LG1 d5015      22.668   9.947  58.974  0.00  0.00     0.018 C 
ATOM      2  C2  LG1 d5015      22.823   8.746  59.831  0.00  0.00     0.193 C 
ATOM      3  C3  LG1 d5015      22.525   8.972  61.261  0.00  0.00     0.049 A 
ATOM      4  C4  LG1 d5015      22.741   7.952  62.191  0.00  0.00     0.037 A 
ATOM      5  C5  LG1 d5015      22.400   8.154  63.529  0.00  0.00     0.012 A 
ATOM      6  C6  LG1 d5015      21.837   9.364  63.937  0.00  0.00     0.022 A 
ATOM      7  C7  LG1 d5015      21.619  10.381  63.007  0.00  0.00     0.039 A 
ATOM      8  C8  LG1 d5015      21.977  10.193  61.672  0.00  0.00     0.083 A 
ATOM      9  O1  LG1 d5015      21.719  11.225  60.809  0.00  0.00    -0.346 OA
ATOM     10  C9  LG1 d5015      22.608  11.258  59.687  0.00  0.00     0.218 C 
ATOM     11 BR1  LG1 d5015      22.718   6.789  64.799  0.00  0.00    -0.051 Br
ATOM     12  O2  LG1 d5015      23.169   7.652  59.410  0.00  0.00    -0.287 OA
ATOM     13  C10 LG1 d5015      22.596   9.801  57.645  0.00  0.00     0.025 C 
ENDROOT
BRANCH  13  14
ATOM     14  C11 LG1 d5015      22.446  10.881  56.716  0.00  0.00    -0.029 A 
ATOM     15  C14 LG1 d5015      21.286  11.613  56.603  0.00  0.00     0.061 A 
ATOM     16  S1  LG1 d5015      21.410  12.834  55.409  0.00  0.00    -0.113 SA
ATOM     17  C13 LG1 d5015      23.021  12.387  55.041  0.00  0.00     0.050 A 
ATOM     18  C12 LG1 d5015      23.452  11.330  55.812  0.00  0.00     0.019 A 
ENDBRANCH  13  14
TORSDOF 1
ENDMDL
