REMARK INTER + INTRA:          -8.752
REMARK INTER:                  -8.712
REMARK INTRA:                  -0.039
REMARK UNBOUND:                 0.107
REMARK  1 active torsions:
REMARK  status: ('A' for Active; 'I' for Inactive)
REMARK    1  A    between atoms: C10_13  and  C11_14 
ROOT
ATOM      1  C1  LG1 d5015      22.605   9.982  59.030  0.00  0.00     0.018 C 
ATOM      2  C2  LG1 d5015      22.738   8.790  59.905  0.00  0.00     0.193 C 
ATOM      3  C3  LG1 d5015      22.459   9.045  61.334  0.00  0.00     0.049 A 
ATOM      4  C4  LG1 d5015      22.658   8.035  62.277  0.00  0.00     0.037 A 
ATOM      5  C5  LG1 d5015      22.334   8.265  63.615  0.00  0.00     0.012 A 
ATOM      6  C6  LG1 d5015      21.805   9.494  64.009  0.00  0.00     0.022 A 
ATOM      7  C7  LG1 d5015      21.603  10.502  63.065  0.00  0.00     0.039 A 
ATOM      8  C8  LG1 d5015      21.945  10.285  61.730  0.00  0.00     0.083 A 
ATOM      9  O1  LG1 d5015      21.705  11.311  60.854  0.00  0.00    -0.346 OA
ATOM     10  C9  LG1 d5015      22.584  11.305  59.725  0.00  0.00     0.218 C 
ATOM     11 BR1  LG1 d5015      22.630   6.911  64.903  0.00  0.00    -0.051 Br
ATOM     12  O2  LG1 d5015      23.053   7.681  59.497  0.00  0.00    -0.287 OA
ATOM     13  C10 LG1 d5015      22.518   9.818  57.705  0.00  0.00     0.025 C 
ENDROOT
BRANCH  13  14
ATOM     14  C11 LG1 d5015      22.386  10.886  56.761  0.00  0.00    -0.029 A 
ATOM     15  C14 LG1 d5015      21.238  11.636  56.637  0.00  0.00     0.061 A 
ATOM     16  S1  LG1 d5015      21.384  12.839  55.428  0.00  0.00    -0.113 SA
ATOM     17  C13 LG1 d5015      22.986  12.358  55.065  0.00  0.00     0.050 A 
ATOM     18  C12 LG1 d5015      23.399  11.305  55.851  0.00  0.00     0.019 A 
ENDBRANCH  13  14
TORSDOF 1
ENDMDL
