REMARK INTER + INTRA:         -10.246
REMARK INTER:                  -9.905
REMARK INTRA:                  -0.341
REMARK UNBOUND:                -0.358
REMARK  2 active torsions:
REMARK  status: ('A' for Active; 'I' for Inactive)
REMARK    1  A    between atoms: C1_1  and  N1_15 
REMARK    2  A    between atoms: C7_9  and  C4_4 
ROOT
ATOM      1  C1  LG1 d5015      23.434  10.141  59.070  0.00  0.00     0.141 A 
ATOM      2  C2  LG1 d5015      22.118  10.456  58.732  0.00  0.00     0.187 A 
ATOM      3  C3  LG1 d5015      21.832  11.001  57.481  0.00  0.00     0.175 A 
ATOM      4  C4  LG1 d5015      22.861  11.233  56.568  0.00  0.00     0.131 A 
ATOM      5  C5  LG1 d5015      24.176  10.920  56.907  0.00  0.00     0.175 A 
ATOM      6  C6  LG1 d5015      24.463  10.373  58.157  0.00  0.00     0.187 A 
ATOM      7  F1  LG1 d5015      25.733  10.077  58.469  0.00  0.00    -0.200 F 
ATOM      8  F2  LG1 d5015      25.172  11.140  56.035  0.00  0.00    -0.202 F 
ATOM      9  F6  LG1 d5015      20.562  11.300  57.165  0.00  0.00    -0.202 F 
ATOM     10  F7  LG1 d5015      21.119  10.237  59.599  0.00  0.00    -0.200 F 
ENDROOT
BRANCH   1  11
ATOM     11  N1  LG1 d5015      23.720   9.600  60.311  0.00  0.00    -0.232 N 
ATOM     12  N2  LG1 d5015      24.048   8.301  60.413  0.00  0.00    -0.172 NA
ATOM     13  C10 LG1 d5015      24.248   8.141  61.723  0.00  0.00     0.053 A 
ATOM     14  C9  LG1 d5015      24.049   9.329  62.453  0.00  0.00     0.055 A 
ATOM     15  C11 LG1 d5015      24.636   6.821  62.249  0.00  0.00     0.072 C 
ATOM     16  C8  LG1 d5015      23.706  10.260  61.503  0.00  0.00     0.035 A 
ATOM     17  C12 LG1 d5015      23.376  11.692  61.640  0.00  0.00     0.070 C 
ENDBRANCH   1  11
BRANCH   4  18
ATOM     18  C7  LG1 d5015      22.553  11.818  55.230  0.00  0.00     0.423 C 
ATOM     19  F4  LG1 d5015      23.599  12.500  54.678  0.00  0.00    -0.166 F 
ATOM     20  F3  LG1 d5015      21.516  12.707  55.248  0.00  0.00    -0.166 F 
ATOM     21  F5  LG1 d5015      22.207  10.871  54.311  0.00  0.00    -0.166 F 
ENDBRANCH   4  18
TORSDOF 2
ENDMDL
