REMARK INTER + INTRA:          -8.429
REMARK INTER:                  -8.605
REMARK INTRA:                   0.177
REMARK UNBOUND:                 0.274
REMARK  1 active torsions:
REMARK  status: ('A' for Active; 'I' for Inactive)
REMARK    1  A    between atoms: C10_13  and  C11_14 
ROOT
ATOM      1  C1  LG1 d5015      22.492   9.911  59.536  0.00  0.00     0.018 C 
ATOM      2  C2  LG1 d5015      22.003   9.673  60.917  0.00  0.00     0.193 C 
ATOM      3  C3  LG1 d5015      22.758   8.645  61.665  0.00  0.00     0.049 A 
ATOM      4  C4  LG1 d5015      22.331   8.247  62.933  0.00  0.00     0.037 A 
ATOM      5  C5  LG1 d5015      23.083   7.321  63.657  0.00  0.00     0.012 A 
ATOM      6  C6  LG1 d5015      24.262   6.802  63.122  0.00  0.00     0.022 A 
ATOM      7  C7  LG1 d5015      24.691   7.203  61.856  0.00  0.00     0.039 A 
ATOM      8  C8  LG1 d5015      23.932   8.111  61.119  0.00  0.00     0.083 A 
ATOM      9  O1  LG1 d5015      24.419   8.475  59.891  0.00  0.00    -0.346 OA
ATOM     10  C9  LG1 d5015      23.394   8.863  58.970  0.00  0.00     0.218 C 
ATOM     11 BR1  LG1 d5015      22.494   6.755  65.363  0.00  0.00    -0.051 Br
ATOM     12  O2  LG1 d5015      21.056  10.265  61.412  0.00  0.00    -0.287 OA
ATOM     13  C10 LG1 d5015      22.108  11.016  58.884  0.00  0.00     0.025 C 
ENDROOT
BRANCH  13  14
ATOM     14  C11 LG1 d5015      22.513  11.355  57.553  0.00  0.00    -0.029 A 
ATOM     15  C14 LG1 d5015      21.623  11.750  56.579  0.00  0.00     0.061 A 
ATOM     16  S1  LG1 d5015      22.405  12.090  55.094  0.00  0.00    -0.113 SA
ATOM     17  C13 LG1 d5015      23.939  11.708  55.752  0.00  0.00     0.050 A 
ATOM     18  C12 LG1 d5015      23.855  11.332  57.074  0.00  0.00     0.019 A 
ENDBRANCH  13  14
TORSDOF 1
ENDMDL
