REMARK INTER + INTRA:          -7.073
REMARK INTER:                  -7.047
REMARK INTRA:                  -0.027
REMARK UNBOUND:                -0.027
REMARK  1 active torsions:
REMARK  status: ('A' for Active; 'I' for Inactive)
REMARK    1  A    between atoms: C10_13  and  C11_14 
ROOT
ATOM      1  C1  LG1 d5015      24.198   8.762  60.313  0.00  0.00     0.018 C 
ATOM      2  C2  LG1 d5015      24.432   7.910  61.506  0.00  0.00     0.193 C 
ATOM      3  C3  LG1 d5015      23.360   7.972  62.522  0.00  0.00     0.049 A 
ATOM      4  C4  LG1 d5015      23.510   7.306  63.740  0.00  0.00     0.037 A 
ATOM      5  C5  LG1 d5015      22.469   7.319  64.668  0.00  0.00     0.012 A 
ATOM      6  C6  LG1 d5015      21.278   7.986  64.379  0.00  0.00     0.022 A 
ATOM      7  C7  LG1 d5015      21.127   8.648  63.160  0.00  0.00     0.039 A 
ATOM      8  C8  LG1 d5015      22.172   8.657  62.237  0.00  0.00     0.083 A 
ATOM      9  O1  LG1 d5015      21.951   9.312  61.055  0.00  0.00    -0.346 OA
ATOM     10  C9  LG1 d5015      23.149   9.817  60.456  0.00  0.00     0.218 C 
ATOM     11 BR1  LG1 d5015      22.678   6.445  66.332  0.00  0.00    -0.051 Br
ATOM     12  O2  LG1 d5015      25.423   7.210  61.655  0.00  0.00    -0.287 OA
ATOM     13  C10 LG1 d5015      24.919   8.554  59.205  0.00  0.00     0.025 C 
ENDROOT
BRANCH  13  14
ATOM     14  C11 LG1 d5015      24.785   9.307  57.994  0.00  0.00    -0.029 A 
ATOM     15  C14 LG1 d5015      25.788  10.108  57.497  0.00  0.00     0.061 A 
ATOM     16  S1  LG1 d5015      25.332  10.878  56.038  0.00  0.00    -0.113 SA
ATOM     17  C13 LG1 d5015      23.787  10.139  56.067  0.00  0.00     0.050 A 
ATOM     18  C12 LG1 d5015      23.625   9.324  57.165  0.00  0.00     0.019 A 
ENDBRANCH  13  14
TORSDOF 1
ENDMDL
