REMARK INTER + INTRA:          -8.409
REMARK INTER:                  -8.580
REMARK INTRA:                   0.171
REMARK UNBOUND:                 0.107
REMARK  1 active torsions:
REMARK  status: ('A' for Active; 'I' for Inactive)
REMARK    1  A    between atoms: C10_13  and  C11_14 
ROOT
ATOM      1  C1  LG1 d5015      22.502   9.909  59.540  0.00  0.00     0.018 C 
ATOM      2  C2  LG1 d5015      22.004   9.686  60.920  0.00  0.00     0.193 C 
ATOM      3  C3  LG1 d5015      22.740   8.652  61.677  0.00  0.00     0.049 A 
ATOM      4  C4  LG1 d5015      22.301   8.267  62.946  0.00  0.00     0.037 A 
ATOM      5  C5  LG1 d5015      23.036   7.335  63.679  0.00  0.00     0.012 A 
ATOM      6  C6  LG1 d5015      24.211   6.795  63.153  0.00  0.00     0.022 A 
ATOM      7  C7  LG1 d5015      24.651   7.182  61.886  0.00  0.00     0.039 A 
ATOM      8  C8  LG1 d5015      23.908   8.098  61.140  0.00  0.00     0.083 A 
ATOM      9  O1  LG1 d5015      24.406   8.447  59.912  0.00  0.00    -0.346 OA
ATOM     10  C9  LG1 d5015      23.391   8.844  58.985  0.00  0.00     0.218 C 
ATOM     11 BR1  LG1 d5015      22.431   6.787  65.385  0.00  0.00    -0.051 Br
ATOM     12  O2  LG1 d5015      21.063  10.295  61.408  0.00  0.00    -0.287 OA
ATOM     13  C10 LG1 d5015      22.138  11.015  58.880  0.00  0.00     0.025 C 
ENDROOT
BRANCH  13  14
ATOM     14  C11 LG1 d5015      22.553  11.341  57.549  0.00  0.00    -0.029 A 
ATOM     15  C14 LG1 d5015      21.673  11.739  56.568  0.00  0.00     0.061 A 
ATOM     16  S1  LG1 d5015      22.467  12.061  55.086  0.00  0.00    -0.113 SA
ATOM     17  C13 LG1 d5015      23.992  11.667  55.753  0.00  0.00     0.050 A 
ATOM     18  C12 LG1 d5015      23.897  11.300  57.078  0.00  0.00     0.019 A 
ENDBRANCH  13  14
TORSDOF 1
ENDMDL
