REMARK INTER + INTRA:          -7.450
REMARK INTER:                  -7.557
REMARK INTRA:                   0.107
REMARK UNBOUND:                 0.107
REMARK  1 active torsions:
REMARK  status: ('A' for Active; 'I' for Inactive)
REMARK    1  A    between atoms: C10_13  and  C11_14 
ROOT
ATOM      1  C1  LG1 d5015      24.166   8.882  60.223  0.00  0.00     0.018 C 
ATOM      2  C2  LG1 d5015      24.351   7.964  61.375  0.00  0.00     0.193 C 
ATOM      3  C3  LG1 d5015      23.307   8.072  62.416  0.00  0.00     0.049 A 
ATOM      4  C4  LG1 d5015      23.424   7.344  63.602  0.00  0.00     0.037 A 
ATOM      5  C5  LG1 d5015      22.405   7.405  64.554  0.00  0.00     0.012 A 
ATOM      6  C6  LG1 d5015      21.268   8.180  64.319  0.00  0.00     0.022 A 
ATOM      7  C7  LG1 d5015      21.151   8.904  63.131  0.00  0.00     0.039 A 
ATOM      8  C8  LG1 d5015      22.176   8.864  62.187  0.00  0.00     0.083 A 
ATOM      9  O1  LG1 d5015      21.988   9.585  61.036  0.00  0.00    -0.346 OA
ATOM     10  C9  LG1 d5015      23.213  10.013  60.433  0.00  0.00     0.218 C 
ATOM     11 BR1  LG1 d5015      22.571   6.446  66.176  0.00  0.00    -0.051 Br
ATOM     12  O2  LG1 d5015      25.282   7.178  61.474  0.00  0.00    -0.287 OA
ATOM     13  C10 LG1 d5015      24.847   8.661  59.092  0.00  0.00     0.025 C 
ENDROOT
BRANCH  13  14
ATOM     14  C11 LG1 d5015      24.753   9.474  57.916  0.00  0.00    -0.029 A 
ATOM     15  C14 LG1 d5015      23.568   9.691  57.250  0.00  0.00     0.061 A 
ATOM     16  S1  LG1 d5015      23.775  10.704  55.886  0.00  0.00    -0.113 SA
ATOM     17  C13 LG1 d5015      25.453  10.854  56.182  0.00  0.00     0.050 A 
ATOM     18  C12 LG1 d5015      25.846  10.147  57.297  0.00  0.00     0.019 A 
ENDBRANCH  13  14
TORSDOF 1
ENDMDL
