MODEL 1
REMARK VINA RESULT:    -8.559      0.000      0.000
REMARK INTER + INTRA:          -8.785
REMARK INTER:                  -8.757
REMARK INTRA:                  -0.028
REMARK UNBOUND:                 0.274
REMARK  1 active torsions:
REMARK  status: ('A' for Active; 'I' for Inactive)
REMARK    1  A    between atoms: C10_13  and  C11_14 
ROOT
ATOM      1  C1  LG1 d5015      22.681   9.976  59.083  0.00  0.00     0.018 C 
ATOM      2  C2  LG1 d5015      22.827   8.780  59.950  0.00  0.00     0.193 C 
ATOM      3  C3  LG1 d5015      22.491   9.009  61.371  0.00  0.00     0.049 A 
ATOM      4  C4  LG1 d5015      22.694   7.996  62.310  0.00  0.00     0.037 A 
ATOM      5  C5  LG1 d5015      22.318   8.200  63.639  0.00  0.00     0.012 A 
ATOM      6  C6  LG1 d5015      21.733   9.406  64.027  0.00  0.00     0.022 A 
ATOM      7  C7  LG1 d5015      21.527  10.416  63.086  0.00  0.00     0.039 A 
ATOM      8  C8  LG1 d5015      21.921  10.226  61.762  0.00  0.00     0.083 A 
ATOM      9  O1  LG1 d5015      21.674  11.252  60.888  0.00  0.00    -0.346 OA
ATOM     10  C9  LG1 d5015      22.590  11.290  59.789  0.00  0.00     0.218 C 
ATOM     11 BR1  LG1 d5015      22.618   6.844  64.923  0.00  0.00    -0.051 Br
ATOM     12  O2  LG1 d5015      23.195   7.688  59.542  0.00  0.00    -0.287 OA
ATOM     13  C10 LG1 d5015      22.644   9.823  57.753  0.00  0.00     0.025 C 
ENDROOT
BRANCH  13  14
ATOM     14  C11 LG1 d5015      22.506  10.897  56.816  0.00  0.00    -0.029 A 
ATOM     15  C14 LG1 d5015      21.344  11.623  56.677  0.00  0.00     0.061 A 
ATOM     16  S1  LG1 d5015      21.486  12.839  55.479  0.00  0.00    -0.113 SA
ATOM     17  C13 LG1 d5015      23.105  12.396  55.144  0.00  0.00     0.050 A 
ATOM     18  C12 LG1 d5015      23.527  11.345  55.928  0.00  0.00     0.019 A 
ENDBRANCH  13  14
TORSDOF 1
ENDMDL
MODEL 2
REMARK VINA RESULT:    -8.222      1.208      2.314
REMARK INTER + INTRA:          -8.429
REMARK INTER:                  -8.605
REMARK INTRA:                   0.177
REMARK UNBOUND:                 0.274
REMARK  1 active torsions:
REMARK  status: ('A' for Active; 'I' for Inactive)
REMARK    1  A    between atoms: C10_13  and  C11_14 
ROOT
ATOM      1  C1  LG1 d5015      22.492   9.911  59.536  0.00  0.00     0.018 C 
ATOM      2  C2  LG1 d5015      22.003   9.673  60.917  0.00  0.00     0.193 C 
ATOM      3  C3  LG1 d5015      22.758   8.645  61.665  0.00  0.00     0.049 A 
ATOM      4  C4  LG1 d5015      22.331   8.247  62.933  0.00  0.00     0.037 A 
ATOM      5  C5  LG1 d5015      23.083   7.321  63.657  0.00  0.00     0.012 A 
ATOM      6  C6  LG1 d5015      24.262   6.802  63.122  0.00  0.00     0.022 A 
ATOM      7  C7  LG1 d5015      24.691   7.203  61.856  0.00  0.00     0.039 A 
ATOM      8  C8  LG1 d5015      23.932   8.111  61.119  0.00  0.00     0.083 A 
ATOM      9  O1  LG1 d5015      24.419   8.475  59.891  0.00  0.00    -0.346 OA
ATOM     10  C9  LG1 d5015      23.394   8.863  58.970  0.00  0.00     0.218 C 
ATOM     11 BR1  LG1 d5015      22.494   6.755  65.363  0.00  0.00    -0.051 Br
ATOM     12  O2  LG1 d5015      21.056  10.265  61.412  0.00  0.00    -0.287 OA
ATOM     13  C10 LG1 d5015      22.108  11.016  58.884  0.00  0.00     0.025 C 
ENDROOT
BRANCH  13  14
ATOM     14  C11 LG1 d5015      22.513  11.355  57.553  0.00  0.00    -0.029 A 
ATOM     15  C14 LG1 d5015      21.623  11.750  56.579  0.00  0.00     0.061 A 
ATOM     16  S1  LG1 d5015      22.405  12.090  55.094  0.00  0.00    -0.113 SA
ATOM     17  C13 LG1 d5015      23.939  11.708  55.752  0.00  0.00     0.050 A 
ATOM     18  C12 LG1 d5015      23.855  11.332  57.074  0.00  0.00     0.019 A 
ENDBRANCH  13  14
TORSDOF 1
ENDMDL
MODEL 3
REMARK VINA RESULT:    -7.970      3.972      6.823
REMARK INTER + INTRA:          -8.162
REMARK INTER:                  -8.131
REMARK INTRA:                  -0.030
REMARK UNBOUND:                 0.274
REMARK  1 active torsions:
REMARK  status: ('A' for Active; 'I' for Inactive)
REMARK    1  A    between atoms: C10_13  and  C11_14 
ROOT
ATOM      1  C1  LG1 d5015      23.114   9.692  61.052  0.00  0.00     0.018 C 
ATOM      2  C2  LG1 d5015      23.285  10.957  60.293  0.00  0.00     0.193 C 
ATOM      3  C3  LG1 d5015      22.823  10.896  58.891  0.00  0.00     0.049 A 
ATOM      4  C4  LG1 d5015      23.030  11.983  58.038  0.00  0.00     0.037 A 
ATOM      5  C5  LG1 d5015      22.537  11.941  56.733  0.00  0.00     0.012 A 
ATOM      6  C6  LG1 d5015      21.831  10.825  56.283  0.00  0.00     0.022 A 
ATOM      7  C7  LG1 d5015      21.621   9.741  57.137  0.00  0.00     0.039 A 
ATOM      8  C8  LG1 d5015      22.131   9.768  58.436  0.00  0.00     0.083 A 
ATOM      9  O1  LG1 d5015      21.873   8.678  59.226  0.00  0.00    -0.346 OA
ATOM     10  C9  LG1 d5015      22.867   8.466  60.234  0.00  0.00     0.218 C 
ATOM     11 BR1  LG1 d5015      22.841  13.396  55.563  0.00  0.00    -0.051 Br
ATOM     12  O2  LG1 d5015      23.768  11.974  60.770  0.00  0.00    -0.287 OA
ATOM     13  C10 LG1 d5015      23.193   9.712  62.388  0.00  0.00     0.025 C 
ENDROOT
BRANCH  13  14
ATOM     14  C11 LG1 d5015      23.045   8.561  63.227  0.00  0.00    -0.029 A 
ATOM     15  C14 LG1 d5015      21.983   8.394  64.087  0.00  0.00     0.061 A 
ATOM     16  S1  LG1 d5015      22.084   6.921  64.954  0.00  0.00    -0.113 SA
ATOM     17  C13 LG1 d5015      23.551   6.502  64.179  0.00  0.00     0.050 A 
ATOM     18  C12 LG1 d5015      23.954   7.464  63.280  0.00  0.00     0.019 A 
ENDBRANCH  13  14
TORSDOF 1
ENDMDL
MODEL 4
REMARK VINA RESULT:    -7.250      1.824      2.190
REMARK INTER + INTRA:          -7.400
REMARK INTER:                  -7.522
REMARK INTRA:                   0.122
REMARK UNBOUND:                 0.274
REMARK  1 active torsions:
REMARK  status: ('A' for Active; 'I' for Inactive)
REMARK    1  A    between atoms: C10_13  and  C11_14 
ROOT
ATOM      1  C1  LG1 d5015      24.147   8.904  60.186  0.00  0.00     0.018 C 
ATOM      2  C2  LG1 d5015      24.317   7.957  61.317  0.00  0.00     0.193 C 
ATOM      3  C3  LG1 d5015      23.295   8.083  62.378  0.00  0.00     0.049 A 
ATOM      4  C4  LG1 d5015      23.405   7.329  63.548  0.00  0.00     0.037 A 
ATOM      5  C5  LG1 d5015      22.405   7.408  64.518  0.00  0.00     0.012 A 
ATOM      6  C6  LG1 d5015      21.295   8.229  64.318  0.00  0.00     0.022 A 
ATOM      7  C7  LG1 d5015      21.184   8.980  63.147  0.00  0.00     0.039 A 
ATOM      8  C8  LG1 d5015      22.191   8.921  62.183  0.00  0.00     0.083 A 
ATOM      9  O1  LG1 d5015      22.010   9.670  61.051  0.00  0.00    -0.346 OA
ATOM     10  C9  LG1 d5015      23.240  10.065  60.434  0.00  0.00     0.218 C 
ATOM     11 BR1  LG1 d5015      22.563   6.413  66.119  0.00  0.00    -0.051 Br
ATOM     12  O2  LG1 d5015      25.219   7.136  61.385  0.00  0.00    -0.287 OA
ATOM     13  C10 LG1 d5015      24.800   8.680  59.039  0.00  0.00     0.025 C 
ENDROOT
BRANCH  13  14
ATOM     14  C11 LG1 d5015      24.717   9.518  57.880  0.00  0.00    -0.029 A 
ATOM     15  C14 LG1 d5015      23.527   9.808  57.251  0.00  0.00     0.061 A 
ATOM     16  S1  LG1 d5015      23.749  10.834  55.899  0.00  0.00    -0.113 SA
ATOM     17  C13 LG1 d5015      25.441  10.893  56.152  0.00  0.00     0.050 A 
ATOM     18  C12 LG1 d5015      25.826  10.147  57.244  0.00  0.00     0.019 A 
ENDBRANCH  13  14
TORSDOF 1
ENDMDL
