MODEL 1
REMARK VINA RESULT:    -8.314      0.000      0.000
REMARK INTER + INTRA:          -8.748
REMARK INTER:                  -8.720
REMARK INTRA:                  -0.028
REMARK UNBOUND:                 0.051
REMARK  1 active torsions:
REMARK  status: ('A' for Active; 'I' for Inactive)
REMARK    1  A    between atoms: C10_13  and  C11_14 
ROOT
ATOM      1  C1  LG1 d5015      22.664   9.982  59.044  0.00  0.00     0.018 C 
ATOM      2  C2  LG1 d5015      22.875   8.797  59.913  0.00  0.00     0.193 C 
ATOM      3  C3  LG1 d5015      22.501   9.002  61.328  0.00  0.00     0.049 A 
ATOM      4  C4  LG1 d5015      22.755   8.004  62.271  0.00  0.00     0.037 A 
ATOM      5  C5  LG1 d5015      22.344   8.181  63.593  0.00  0.00     0.012 A 
ATOM      6  C6  LG1 d5015      21.674   9.345  63.971  0.00  0.00     0.022 A 
ATOM      7  C7  LG1 d5015      21.417  10.340  63.027  0.00  0.00     0.039 A 
ATOM      8  C8  LG1 d5015      21.844  10.178  61.710  0.00  0.00     0.083 A 
ATOM      9  O1  LG1 d5015      21.544  11.187  60.832  0.00  0.00    -0.346 OA
ATOM     10  C9  LG1 d5015      22.474  11.286  59.748  0.00  0.00     0.218 C 
ATOM     11 BR1  LG1 d5015      22.713   6.847  64.882  0.00  0.00    -0.051 Br
ATOM     12  O2  LG1 d5015      23.321   7.732  59.511  0.00  0.00    -0.287 OA
ATOM     13  C10 LG1 d5015      22.659   9.829  57.714  0.00  0.00     0.025 C 
ENDROOT
BRANCH  13  14
ATOM     14  C11 LG1 d5015      22.465  10.892  56.774  0.00  0.00    -0.029 A 
ATOM     15  C14 LG1 d5015      21.259  11.536  56.613  0.00  0.00     0.061 A 
ATOM     16  S1  LG1 d5015      21.340  12.761  55.420  0.00  0.00    -0.113 SA
ATOM     17  C13 LG1 d5015      22.991  12.431  55.115  0.00  0.00     0.050 A 
ATOM     18  C12 LG1 d5015      23.469  11.411  55.906  0.00  0.00     0.019 A 
ENDBRANCH  13  14
TORSDOF 1
ENDMDL
MODEL 2
REMARK VINA RESULT:    -8.000      1.177      2.331
REMARK INTER + INTRA:          -8.416
REMARK INTER:                  -8.592
REMARK INTRA:                   0.176
REMARK UNBOUND:                 0.051
REMARK  1 active torsions:
REMARK  status: ('A' for Active; 'I' for Inactive)
REMARK    1  A    between atoms: C10_13  and  C11_14 
ROOT
ATOM      1  C1  LG1 d5015      22.490   9.906  59.536  0.00  0.00     0.018 C 
ATOM      2  C2  LG1 d5015      21.988   9.678  60.914  0.00  0.00     0.193 C 
ATOM      3  C3  LG1 d5015      22.734   8.653  61.675  0.00  0.00     0.049 A 
ATOM      4  C4  LG1 d5015      22.295   8.264  62.942  0.00  0.00     0.037 A 
ATOM      5  C5  LG1 d5015      23.039   7.341  63.678  0.00  0.00     0.012 A 
ATOM      6  C6  LG1 d5015      24.222   6.815  63.157  0.00  0.00     0.022 A 
ATOM      7  C7  LG1 d5015      24.662   7.208  61.892  0.00  0.00     0.039 A 
ATOM      8  C8  LG1 d5015      23.911   8.113  61.142  0.00  0.00     0.083 A 
ATOM      9  O1  LG1 d5015      24.410   8.468  59.917  0.00  0.00    -0.346 OA
ATOM     10  C9  LG1 d5015      23.394   8.853  58.984  0.00  0.00     0.218 C 
ATOM     11 BR1  LG1 d5015      22.434   6.786  65.382  0.00  0.00    -0.051 Br
ATOM     12  O2  LG1 d5015      21.038  10.275  61.398  0.00  0.00    -0.287 OA
ATOM     13  C10 LG1 d5015      22.114  11.008  58.874  0.00  0.00     0.025 C 
ENDROOT
BRANCH  13  14
ATOM     14  C11 LG1 d5015      22.531  11.338  57.545  0.00  0.00    -0.029 A 
ATOM     15  C14 LG1 d5015      21.651  11.733  56.562  0.00  0.00     0.061 A 
ATOM     16  S1  LG1 d5015      22.446  12.062  55.082  0.00  0.00    -0.113 SA
ATOM     17  C13 LG1 d5015      23.972  11.675  55.753  0.00  0.00     0.050 A 
ATOM     18  C12 LG1 d5015      23.876  11.305  57.076  0.00  0.00     0.019 A 
ENDBRANCH  13  14
TORSDOF 1
ENDMDL
MODEL 3
REMARK VINA RESULT:    -7.779      3.979      6.816
REMARK INTER + INTRA:          -8.183
REMARK INTER:                  -8.167
REMARK INTRA:                  -0.016
REMARK UNBOUND:                 0.051
REMARK  1 active torsions:
REMARK  status: ('A' for Active; 'I' for Inactive)
REMARK    1  A    between atoms: C10_13  and  C11_14 
ROOT
ATOM      1  C1  LG1 d5015      23.086   9.686  61.037  0.00  0.00     0.018 C 
ATOM      2  C2  LG1 d5015      23.260  10.948  60.276  0.00  0.00     0.193 C 
ATOM      3  C3  LG1 d5015      22.778  10.893  58.880  0.00  0.00     0.049 A 
ATOM      4  C4  LG1 d5015      22.985  11.976  58.024  0.00  0.00     0.037 A 
ATOM      5  C5  LG1 d5015      22.473  11.940  56.726  0.00  0.00     0.012 A 
ATOM      6  C6  LG1 d5015      21.749  10.831  56.286  0.00  0.00     0.022 A 
ATOM      7  C7  LG1 d5015      21.539   9.750  57.144  0.00  0.00     0.039 A 
ATOM      8  C8  LG1 d5015      22.066   9.772  58.435  0.00  0.00     0.083 A 
ATOM      9  O1  LG1 d5015      21.808   8.686  59.229  0.00  0.00    -0.346 OA
ATOM     10  C9  LG1 d5015      22.813   8.463  60.223  0.00  0.00     0.218 C 
ATOM     11 BR1  LG1 d5015      22.777  13.391  55.551  0.00  0.00    -0.051 Br
ATOM     12  O2  LG1 d5015      23.760  11.960  60.745  0.00  0.00    -0.287 OA
ATOM     13  C10 LG1 d5015      23.183   9.705  62.372  0.00  0.00     0.025 C 
ENDROOT
BRANCH  13  14
ATOM     14  C11 LG1 d5015      23.034   8.556  63.214  0.00  0.00    -0.029 A 
ATOM     15  C14 LG1 d5015      22.000   8.416  64.111  0.00  0.00     0.061 A 
ATOM     16  S1  LG1 d5015      22.090   6.938  64.970  0.00  0.00    -0.113 SA
ATOM     17  C13 LG1 d5015      23.516   6.481  64.143  0.00  0.00     0.050 A 
ATOM     18  C12 LG1 d5015      23.913   7.434  63.232  0.00  0.00     0.019 A 
ENDBRANCH  13  14
TORSDOF 1
ENDMDL
MODEL 4
REMARK VINA RESULT:    -6.875      3.940      6.910
REMARK INTER + INTRA:          -7.226
REMARK INTER:                  -7.767
REMARK INTRA:                   0.541
REMARK UNBOUND:                 0.051
REMARK  1 active torsions:
REMARK  status: ('A' for Active; 'I' for Inactive)
REMARK    1  A    between atoms: C10_13  and  C11_14 
ROOT
ATOM      1  C1  LG1 d5015      22.538   9.779  60.757  0.00  0.00     0.018 C 
ATOM      2  C2  LG1 d5015      22.028  10.620  59.645  0.00  0.00     0.193 C 
ATOM      3  C3  LG1 d5015      22.959  10.758  58.505  0.00  0.00     0.049 A 
ATOM      4  C4  LG1 d5015      22.647  11.613  57.446  0.00  0.00     0.037 A 
ATOM      5  C5  LG1 d5015      23.502  11.691  56.346  0.00  0.00     0.012 A 
ATOM      6  C6  LG1 d5015      24.660  10.913  56.298  0.00  0.00     0.022 A 
ATOM      7  C7  LG1 d5015      24.969  10.056  57.356  0.00  0.00     0.039 A 
ATOM      8  C8  LG1 d5015      24.129   9.990  58.467  0.00  0.00     0.083 A 
ATOM      9  O1  LG1 d5015      24.484   9.116  59.461  0.00  0.00    -0.346 OA
ATOM     10  C9  LG1 d5015      24.008   9.508  60.753  0.00  0.00     0.218 C 
ATOM     11 BR1  LG1 d5015      23.101  12.870  54.922  0.00  0.00    -0.051 Br
ATOM     12  O2  LG1 d5015      20.934  11.163  59.653  0.00  0.00    -0.287 OA
ATOM     13  C10 LG1 d5015      21.684   9.323  61.681  0.00  0.00     0.025 C 
ENDROOT
BRANCH  13  14
ATOM     14  C11 LG1 d5015      22.055   8.504  62.797  0.00  0.00    -0.029 A 
ATOM     15  C14 LG1 d5015      23.139   7.656  62.774  0.00  0.00     0.061 A 
ATOM     16  S1  LG1 d5015      23.327   6.814  64.252  0.00  0.00    -0.113 SA
ATOM     17  C13 LG1 d5015      21.956   7.584  64.928  0.00  0.00     0.050 A 
ATOM     18  C12 LG1 d5015      21.369   8.463  64.046  0.00  0.00     0.019 A 
ENDBRANCH  13  14
TORSDOF 1
ENDMDL
MODEL 5
REMARK VINA RESULT:    -6.817      1.713      2.059
REMARK INTER + INTRA:          -7.164
REMARK INTER:                  -7.215
REMARK INTRA:                   0.051
REMARK UNBOUND:                 0.051
REMARK  1 active torsions:
REMARK  status: ('A' for Active; 'I' for Inactive)
REMARK    1  A    between atoms: C10_13  and  C11_14 
ROOT
ATOM      1  C1  LG1 d5015      24.026   8.917  60.085  0.00  0.00     0.018 C 
ATOM      2  C2  LG1 d5015      24.179   7.940  61.192  0.00  0.00     0.193 C 
ATOM      3  C3  LG1 d5015      23.219   8.118  62.301  0.00  0.00     0.049 A 
ATOM      4  C4  LG1 d5015      23.328   7.336  63.453  0.00  0.00     0.037 A 
ATOM      5  C5  LG1 d5015      22.381   7.468  64.470  0.00  0.00     0.012 A 
ATOM      6  C6  LG1 d5015      21.324   8.369  64.335  0.00  0.00     0.022 A 
ATOM      7  C7  LG1 d5015      21.214   9.147  63.181  0.00  0.00     0.039 A 
ATOM      8  C8  LG1 d5015      22.169   9.035  62.171  0.00  0.00     0.083 A 
ATOM      9  O1  LG1 d5015      21.991   9.816  61.060  0.00  0.00    -0.346 OA
ATOM     10  C9  LG1 d5015      23.216  10.134  60.392  0.00  0.00     0.218 C 
ATOM     11 BR1  LG1 d5015      22.540   6.435  66.047  0.00  0.00    -0.051 Br
ATOM     12  O2  LG1 d5015      25.023   7.056  61.205  0.00  0.00    -0.287 OA
ATOM     13  C10 LG1 d5015      24.608   8.669  58.905  0.00  0.00     0.025 C 
ENDROOT
BRANCH  13  14
ATOM     14  C11 LG1 d5015      24.532   9.532  57.764  0.00  0.00    -0.029 A 
ATOM     15  C14 LG1 d5015      23.347   9.835  57.134  0.00  0.00     0.061 A 
ATOM     16  S1  LG1 d5015      23.577  10.891  55.806  0.00  0.00    -0.113 SA
ATOM     17  C13 LG1 d5015      25.267  10.945  56.072  0.00  0.00     0.050 A 
ATOM     18  C12 LG1 d5015      25.646  10.176  57.149  0.00  0.00     0.019 A 
ENDBRANCH  13  14
TORSDOF 1
ENDMDL
