REMARK INTER + INTRA:          -8.183
REMARK INTER:                  -8.167
REMARK INTRA:                  -0.016
REMARK UNBOUND:                 0.051
REMARK  1 active torsions:
REMARK  status: ('A' for Active; 'I' for Inactive)
REMARK    1  A    between atoms: C10_13  and  C11_14 
ROOT
ATOM      1  C1  LG1 d5015      23.086   9.686  61.037  0.00  0.00     0.018 C 
ATOM      2  C2  LG1 d5015      23.260  10.948  60.276  0.00  0.00     0.193 C 
ATOM      3  C3  LG1 d5015      22.778  10.893  58.880  0.00  0.00     0.049 A 
ATOM      4  C4  LG1 d5015      22.985  11.976  58.024  0.00  0.00     0.037 A 
ATOM      5  C5  LG1 d5015      22.473  11.940  56.726  0.00  0.00     0.012 A 
ATOM      6  C6  LG1 d5015      21.749  10.831  56.286  0.00  0.00     0.022 A 
ATOM      7  C7  LG1 d5015      21.539   9.750  57.144  0.00  0.00     0.039 A 
ATOM      8  C8  LG1 d5015      22.066   9.772  58.435  0.00  0.00     0.083 A 
ATOM      9  O1  LG1 d5015      21.808   8.686  59.229  0.00  0.00    -0.346 OA
ATOM     10  C9  LG1 d5015      22.813   8.463  60.223  0.00  0.00     0.218 C 
ATOM     11 BR1  LG1 d5015      22.777  13.391  55.551  0.00  0.00    -0.051 Br
ATOM     12  O2  LG1 d5015      23.760  11.960  60.745  0.00  0.00    -0.287 OA
ATOM     13  C10 LG1 d5015      23.183   9.705  62.372  0.00  0.00     0.025 C 
ENDROOT
BRANCH  13  14
ATOM     14  C11 LG1 d5015      23.034   8.556  63.214  0.00  0.00    -0.029 A 
ATOM     15  C14 LG1 d5015      22.000   8.416  64.111  0.00  0.00     0.061 A 
ATOM     16  S1  LG1 d5015      22.090   6.938  64.970  0.00  0.00    -0.113 SA
ATOM     17  C13 LG1 d5015      23.516   6.481  64.143  0.00  0.00     0.050 A 
ATOM     18  C12 LG1 d5015      23.913   7.434  63.232  0.00  0.00     0.019 A 
ENDBRANCH  13  14
TORSDOF 1
ENDMDL
