REMARK INTER + INTRA:          -7.400
REMARK INTER:                  -7.522
REMARK INTRA:                   0.122
REMARK UNBOUND:                 0.274
REMARK  1 active torsions:
REMARK  status: ('A' for Active; 'I' for Inactive)
REMARK    1  A    between atoms: C10_13  and  C11_14 
ROOT
ATOM      1  C1  LG1 d5015      24.147   8.904  60.186  0.00  0.00     0.018 C 
ATOM      2  C2  LG1 d5015      24.317   7.957  61.317  0.00  0.00     0.193 C 
ATOM      3  C3  LG1 d5015      23.295   8.083  62.378  0.00  0.00     0.049 A 
ATOM      4  C4  LG1 d5015      23.405   7.329  63.548  0.00  0.00     0.037 A 
ATOM      5  C5  LG1 d5015      22.405   7.408  64.518  0.00  0.00     0.012 A 
ATOM      6  C6  LG1 d5015      21.295   8.229  64.318  0.00  0.00     0.022 A 
ATOM      7  C7  LG1 d5015      21.184   8.980  63.147  0.00  0.00     0.039 A 
ATOM      8  C8  LG1 d5015      22.191   8.921  62.183  0.00  0.00     0.083 A 
ATOM      9  O1  LG1 d5015      22.010   9.670  61.051  0.00  0.00    -0.346 OA
ATOM     10  C9  LG1 d5015      23.240  10.065  60.434  0.00  0.00     0.218 C 
ATOM     11 BR1  LG1 d5015      22.563   6.413  66.119  0.00  0.00    -0.051 Br
ATOM     12  O2  LG1 d5015      25.219   7.136  61.385  0.00  0.00    -0.287 OA
ATOM     13  C10 LG1 d5015      24.800   8.680  59.039  0.00  0.00     0.025 C 
ENDROOT
BRANCH  13  14
ATOM     14  C11 LG1 d5015      24.717   9.518  57.880  0.00  0.00    -0.029 A 
ATOM     15  C14 LG1 d5015      23.527   9.808  57.251  0.00  0.00     0.061 A 
ATOM     16  S1  LG1 d5015      23.749  10.834  55.899  0.00  0.00    -0.113 SA
ATOM     17  C13 LG1 d5015      25.441  10.893  56.152  0.00  0.00     0.050 A 
ATOM     18  C12 LG1 d5015      25.826  10.147  57.244  0.00  0.00     0.019 A 
ENDBRANCH  13  14
TORSDOF 1
ENDMDL
