REMARK INTER + INTRA:         -11.077
REMARK INTER:                 -10.604
REMARK INTRA:                  -0.473
REMARK UNBOUND:                -0.358
REMARK  2 active torsions:
REMARK  status: ('A' for Active; 'I' for Inactive)
REMARK    1  A    between atoms: C1_1  and  N1_15 
REMARK    2  A    between atoms: C7_9  and  C4_4 
ROOT
ATOM      1  C1  LG1 d5015      23.013   9.558  60.646  0.00  0.00     0.141 A 
ATOM      2  C2  LG1 d5015      22.331   9.095  59.521  0.00  0.00     0.187 A 
ATOM      3  C3  LG1 d5015      22.186   9.918  58.405  0.00  0.00     0.175 A 
ATOM      4  C4  LG1 d5015      22.722  11.206  58.414  0.00  0.00     0.131 A 
ATOM      5  C5  LG1 d5015      23.404  11.670  59.538  0.00  0.00     0.175 A 
ATOM      6  C6  LG1 d5015      23.549  10.846  60.654  0.00  0.00     0.187 A 
ATOM      7  F1  LG1 d5015      24.207  11.305  61.728  0.00  0.00    -0.200 F 
ATOM      8  F2  LG1 d5015      23.922  12.907  59.556  0.00  0.00    -0.202 F 
ATOM      9  F6  LG1 d5015      21.529   9.462  57.328  0.00  0.00    -0.202 F 
ATOM     10  F7  LG1 d5015      21.811   7.859  59.499  0.00  0.00    -0.200 F 
ENDROOT
BRANCH   1  11
ATOM     11  N1  LG1 d5015      23.157   8.742  61.754  0.00  0.00    -0.232 N 
ATOM     12  N2  LG1 d5015      22.146   8.624  62.631  0.00  0.00    -0.172 NA
ATOM     13  C10 LG1 d5015      22.634   7.781  63.544  0.00  0.00     0.053 A 
ATOM     14  C9  LG1 d5015      23.947   7.364  63.252  0.00  0.00     0.055 A 
ATOM     15  C11 LG1 d5015      21.805   7.389  64.697  0.00  0.00     0.072 C 
ATOM     16  C8  LG1 d5015      24.258   8.008  62.080  0.00  0.00     0.035 A 
ATOM     17  C12 LG1 d5015      25.490   7.978  61.267  0.00  0.00     0.070 C 
ENDBRANCH   1  11
BRANCH   4  18
ATOM     18  C7  LG1 d5015      22.566  12.086  57.219  0.00  0.00     0.423 C 
ATOM     19  F4  LG1 d5015      22.453  13.411  57.528  0.00  0.00    -0.166 F 
ATOM     20  F3  LG1 d5015      21.461  11.800  56.470  0.00  0.00    -0.166 F 
ATOM     21  F5  LG1 d5015      23.623  11.999  56.361  0.00  0.00    -0.166 F 
ENDBRANCH   4  18
TORSDOF 2
ENDMDL
