REMARK INTER + INTRA:          -8.438
REMARK INTER:                  -8.604
REMARK INTRA:                   0.165
REMARK UNBOUND:                -0.027
REMARK  1 active torsions:
REMARK  status: ('A' for Active; 'I' for Inactive)
REMARK    1  A    between atoms: C10_13  and  C11_14 
ROOT
ATOM      1  C1  LG1 d5015      22.496   9.912  59.540  0.00  0.00     0.018 C 
ATOM      2  C2  LG1 d5015      22.012   9.677  60.924  0.00  0.00     0.193 C 
ATOM      3  C3  LG1 d5015      22.763   8.644  61.668  0.00  0.00     0.049 A 
ATOM      4  C4  LG1 d5015      22.339   8.249  62.939  0.00  0.00     0.037 A 
ATOM      5  C5  LG1 d5015      23.089   7.318  63.659  0.00  0.00     0.012 A 
ATOM      6  C6  LG1 d5015      24.261   6.789  63.118  0.00  0.00     0.022 A 
ATOM      7  C7  LG1 d5015      24.686   7.187  61.850  0.00  0.00     0.039 A 
ATOM      8  C8  LG1 d5015      23.930   8.101  61.116  0.00  0.00     0.083 A 
ATOM      9  O1  LG1 d5015      24.414   8.461  59.886  0.00  0.00    -0.346 OA
ATOM     10  C9  LG1 d5015      23.387   8.857  58.970  0.00  0.00     0.218 C 
ATOM     11 BR1  LG1 d5015      22.504   6.756  65.368  0.00  0.00    -0.051 Br
ATOM     12  O2  LG1 d5015      21.072  10.277  61.424  0.00  0.00    -0.287 OA
ATOM     13  C10 LG1 d5015      22.117  11.019  58.891  0.00  0.00     0.025 C 
ENDROOT
BRANCH  13  14
ATOM     14  C11 LG1 d5015      22.517  11.356  57.557  0.00  0.00    -0.029 A 
ATOM     15  C14 LG1 d5015      21.624  11.748  56.585  0.00  0.00     0.061 A 
ATOM     16  S1  LG1 d5015      22.401  12.084  55.098  0.00  0.00    -0.113 SA
ATOM     17  C13 LG1 d5015      23.937  11.705  55.751  0.00  0.00     0.050 A 
ATOM     18  C12 LG1 d5015      23.858  11.331  57.074  0.00  0.00     0.019 A 
ENDBRANCH  13  14
TORSDOF 1
ENDMDL
