REMARK INTER + INTRA:          -7.562
REMARK INTER:                  -7.386
REMARK INTRA:                  -0.176
REMARK UNBOUND:                -0.193
REMARK  1 active torsions:
REMARK  status: ('A' for Active; 'I' for Inactive)
REMARK    1  A    between atoms: C1_1  and  N1_10 
ROOT
ATOM      1  C1  LG1 d5015      22.841   9.638  60.588  0.00  0.00     0.056 A 
ATOM      2  C2  LG1 d5015      22.612   9.050  59.344  0.00  0.00    -0.033 A 
ATOM      3  C3  LG1 d5015      22.603   9.838  58.193  0.00  0.00     0.028 A 
ATOM      4  C4  LG1 d5015      22.822  11.212  58.285  0.00  0.00     0.012 A 
ATOM      5  C5  LG1 d5015      23.050  11.800  59.531  0.00  0.00     0.028 A 
ATOM      6  C6  LG1 d5015      23.059  11.012  60.681  0.00  0.00    -0.033 A 
ATOM      7  C7  LG1 d5015      23.307  11.670  62.000  0.00  0.00     0.050 C 
ATOM      8 BR1  LG1 d5015      22.807  12.279  56.725  0.00  0.00    -0.051 Br
ATOM      9  C8  LG1 d5015      22.376   7.580  59.213  0.00  0.00     0.050 C 
ENDROOT
BRANCH   1  10
ATOM     10  N1  LG1 d5015      22.853   8.828  61.774  0.00  0.00    -0.265 N 
ATOM     11  C11 LG1 d5015      23.964   8.113  62.222  0.00  0.00     0.148 C 
ATOM     12  S2  LG1 d5015      25.560   8.161  61.715  0.00  0.00    -0.052 SA
ATOM     13  S1  LG1 d5015      23.502   7.116  63.597  0.00  0.00    -0.090 SA
ATOM     14  C10 LG1 d5015      21.889   7.881  63.767  0.00  0.00     0.185 C 
ATOM     15  C9  LG1 d5015      21.682   8.717  62.537  0.00  0.00     0.239 C 
ATOM     16  O1  LG1 d5015      20.580   9.199  62.287  0.00  0.00    -0.272 OA
ENDBRANCH   1  10
TORSDOF 1
ENDMDL
