REMARK INTER + INTRA:          -8.162
REMARK INTER:                  -8.131
REMARK INTRA:                  -0.030
REMARK UNBOUND:                 0.274
REMARK  1 active torsions:
REMARK  status: ('A' for Active; 'I' for Inactive)
REMARK    1  A    between atoms: C10_13  and  C11_14 
ROOT
ATOM      1  C1  LG1 d5015      23.114   9.692  61.052  0.00  0.00     0.018 C 
ATOM      2  C2  LG1 d5015      23.285  10.957  60.293  0.00  0.00     0.193 C 
ATOM      3  C3  LG1 d5015      22.823  10.896  58.891  0.00  0.00     0.049 A 
ATOM      4  C4  LG1 d5015      23.030  11.983  58.038  0.00  0.00     0.037 A 
ATOM      5  C5  LG1 d5015      22.537  11.941  56.733  0.00  0.00     0.012 A 
ATOM      6  C6  LG1 d5015      21.831  10.825  56.283  0.00  0.00     0.022 A 
ATOM      7  C7  LG1 d5015      21.621   9.741  57.137  0.00  0.00     0.039 A 
ATOM      8  C8  LG1 d5015      22.131   9.768  58.436  0.00  0.00     0.083 A 
ATOM      9  O1  LG1 d5015      21.873   8.678  59.226  0.00  0.00    -0.346 OA
ATOM     10  C9  LG1 d5015      22.867   8.466  60.234  0.00  0.00     0.218 C 
ATOM     11 BR1  LG1 d5015      22.841  13.396  55.563  0.00  0.00    -0.051 Br
ATOM     12  O2  LG1 d5015      23.768  11.974  60.770  0.00  0.00    -0.287 OA
ATOM     13  C10 LG1 d5015      23.193   9.712  62.388  0.00  0.00     0.025 C 
ENDROOT
BRANCH  13  14
ATOM     14  C11 LG1 d5015      23.045   8.561  63.227  0.00  0.00    -0.029 A 
ATOM     15  C14 LG1 d5015      21.983   8.394  64.087  0.00  0.00     0.061 A 
ATOM     16  S1  LG1 d5015      22.084   6.921  64.954  0.00  0.00    -0.113 SA
ATOM     17  C13 LG1 d5015      23.551   6.502  64.179  0.00  0.00     0.050 A 
ATOM     18  C12 LG1 d5015      23.954   7.464  63.280  0.00  0.00     0.019 A 
ENDBRANCH  13  14
TORSDOF 1
ENDMDL
