REMARK INTER + INTRA:          -7.576
REMARK INTER:                  -7.414
REMARK INTRA:                  -0.162
REMARK UNBOUND:                -0.191
REMARK  1 active torsions:
REMARK  status: ('A' for Active; 'I' for Inactive)
REMARK    1  A    between atoms: C1_1  and  N1_10 
ROOT
ATOM      1  C1  LG1 d5015      22.822   9.630  60.567  0.00  0.00     0.056 A 
ATOM      2  C2  LG1 d5015      22.572   9.031  59.333  0.00  0.00    -0.033 A 
ATOM      3  C3  LG1 d5015      22.522   9.811  58.177  0.00  0.00     0.028 A 
ATOM      4  C4  LG1 d5015      22.721  11.189  58.256  0.00  0.00     0.012 A 
ATOM      5  C5  LG1 d5015      22.969  11.788  59.492  0.00  0.00     0.028 A 
ATOM      6  C6  LG1 d5015      23.019  11.008  60.646  0.00  0.00    -0.033 A 
ATOM      7  C7  LG1 d5015      23.288  11.679  61.955  0.00  0.00     0.050 C 
ATOM      8 BR1  LG1 d5015      22.651  12.246  56.690  0.00  0.00    -0.051 Br
ATOM      9  C8  LG1 d5015      22.356   7.557  59.216  0.00  0.00     0.050 C 
ENDROOT
BRANCH   1  10
ATOM     10  N1  LG1 d5015      22.875   8.828  61.756  0.00  0.00    -0.265 N 
ATOM     11  C11 LG1 d5015      24.002   8.118  62.172  0.00  0.00     0.148 C 
ATOM     12  S2  LG1 d5015      25.580   8.165  61.611  0.00  0.00    -0.052 SA
ATOM     13  S1  LG1 d5015      23.588   7.129  63.567  0.00  0.00    -0.090 SA
ATOM     14  C10 LG1 d5015      21.981   7.893  63.787  0.00  0.00     0.185 C 
ATOM     15  C9  LG1 d5015      21.731   8.720  62.560  0.00  0.00     0.239 C 
ATOM     16  O1  LG1 d5015      20.620   9.199  62.344  0.00  0.00    -0.272 OA
ENDBRANCH   1  10
TORSDOF 1
ENDMDL
