REMARK INTER + INTRA:          -8.172
REMARK INTER:                  -8.149
REMARK INTRA:                  -0.023
REMARK UNBOUND:                 0.195
REMARK  1 active torsions:
REMARK  status: ('A' for Active; 'I' for Inactive)
REMARK    1  A    between atoms: C10_13  and  C11_14 
ROOT
ATOM      1  C1  LG1 d5015      23.091   9.705  61.066  0.00  0.00     0.018 C 
ATOM      2  C2  LG1 d5015      23.250  10.971  60.307  0.00  0.00     0.193 C 
ATOM      3  C3  LG1 d5015      22.783  10.908  58.906  0.00  0.00     0.049 A 
ATOM      4  C4  LG1 d5015      22.979  11.995  58.053  0.00  0.00     0.037 A 
ATOM      5  C5  LG1 d5015      22.482  11.950  56.750  0.00  0.00     0.012 A 
ATOM      6  C6  LG1 d5015      21.783  10.829  56.302  0.00  0.00     0.022 A 
ATOM      7  C7  LG1 d5015      21.584   9.743  57.157  0.00  0.00     0.039 A 
ATOM      8  C8  LG1 d5015      22.098   9.774  58.453  0.00  0.00     0.083 A 
ATOM      9  O1  LG1 d5015      21.851   8.683  59.244  0.00  0.00    -0.346 OA
ATOM     10  C9  LG1 d5015      22.850   8.478  60.249  0.00  0.00     0.218 C 
ATOM     11 BR1  LG1 d5015      22.771  13.407  55.579  0.00  0.00    -0.051 Br
ATOM     12  O2  LG1 d5015      23.727  11.992  60.782  0.00  0.00    -0.287 OA
ATOM     13  C10 LG1 d5015      23.175   9.725  62.402  0.00  0.00     0.025 C 
ENDROOT
BRANCH  13  14
ATOM     14  C11 LG1 d5015      23.038   8.573  63.241  0.00  0.00    -0.029 A 
ATOM     15  C14 LG1 d5015      21.990   8.407  64.118  0.00  0.00     0.061 A 
ATOM     16  S1  LG1 d5015      22.102   6.933  64.981  0.00  0.00    -0.113 SA
ATOM     17  C13 LG1 d5015      23.555   6.511  64.182  0.00  0.00     0.050 A 
ATOM     18  C12 LG1 d5015      23.944   7.474  63.277  0.00  0.00     0.019 A 
ENDBRANCH  13  14
TORSDOF 1
ENDMDL
