REMARK INTER + INTRA:         -10.223
REMARK INTER:                  -9.865
REMARK INTRA:                  -0.358
REMARK UNBOUND:                -0.358
REMARK  2 active torsions:
REMARK  status: ('A' for Active; 'I' for Inactive)
REMARK    1  A    between atoms: C1_1  and  N1_15 
REMARK    2  A    between atoms: C7_9  and  C4_4 
ROOT
ATOM      1  C1  LG1 d5015      23.308  10.243  59.160  0.00  0.00     0.141 A 
ATOM      2  C2  LG1 d5015      24.283  10.521  58.201  0.00  0.00     0.187 A 
ATOM      3  C3  LG1 d5015      23.923  11.122  56.995  0.00  0.00     0.175 A 
ATOM      4  C4  LG1 d5015      22.590  11.444  56.746  0.00  0.00     0.131 A 
ATOM      5  C5  LG1 d5015      21.615  11.165  57.703  0.00  0.00     0.175 A 
ATOM      6  C6  LG1 d5015      21.974  10.565  58.909  0.00  0.00     0.187 A 
ATOM      7  F1  LG1 d5015      21.025  10.304  59.821  0.00  0.00    -0.200 F 
ATOM      8  F2  LG1 d5015      20.329  11.471  57.472  0.00  0.00    -0.202 F 
ATOM      9  F6  LG1 d5015      24.869  11.385  56.081  0.00  0.00    -0.202 F 
ATOM     10  F7  LG1 d5015      25.569  10.217  58.428  0.00  0.00    -0.200 F 
ENDROOT
BRANCH   1  11
ATOM     11  N1  LG1 d5015      23.662   9.647  60.356  0.00  0.00    -0.232 N 
ATOM     12  N2  LG1 d5015      23.998   8.346  60.380  0.00  0.00    -0.172 NA
ATOM     13  C10 LG1 d5015      24.270   8.127  61.668  0.00  0.00     0.053 A 
ATOM     14  C9  LG1 d5015      24.110   9.279  62.462  0.00  0.00     0.055 A 
ATOM     15  C11 LG1 d5015      24.688   6.785  62.110  0.00  0.00     0.072 C 
ATOM     16  C8  LG1 d5015      23.714  10.251  61.577  0.00  0.00     0.035 A 
ATOM     17  C12 LG1 d5015      23.391  11.674  61.798  0.00  0.00     0.070 C 
ENDBRANCH   1  11
BRANCH   4  18
ATOM     18  C7  LG1 d5015      22.206  12.086  55.454  0.00  0.00     0.423 C 
ATOM     19  F4  LG1 d5015      20.910  12.513  55.420  0.00  0.00    -0.166 F 
ATOM     20  F3  LG1 d5015      22.339  11.261  54.374  0.00  0.00    -0.166 F 
ATOM     21  F5  LG1 d5015      22.963  13.185  55.170  0.00  0.00    -0.166 F 
ENDBRANCH   4  18
TORSDOF 2
ENDMDL
