REMARK INTER + INTRA:         -10.848
REMARK INTER:                 -10.290
REMARK INTRA:                  -0.558
REMARK UNBOUND:                -0.358
REMARK  2 active torsions:
REMARK  status: ('A' for Active; 'I' for Inactive)
REMARK    1  A    between atoms: C1_1  and  N1_15 
REMARK    2  A    between atoms: C7_9  and  C4_4 
ROOT
ATOM      1  C1  LG1 d5015      22.957  10.565  59.373  0.00  0.00     0.141 A 
ATOM      2  C2  LG1 d5015      23.349  11.355  60.455  0.00  0.00     0.187 A 
ATOM      3  C3  LG1 d5015      22.909  11.044  61.741  0.00  0.00     0.175 A 
ATOM      4  C4  LG1 d5015      22.076   9.944  61.947  0.00  0.00     0.131 A 
ATOM      5  C5  LG1 d5015      21.683   9.155  60.866  0.00  0.00     0.175 A 
ATOM      6  C6  LG1 d5015      22.124   9.466  59.580  0.00  0.00     0.187 A 
ATOM      7  F1  LG1 d5015      21.738   8.698  58.551  0.00  0.00    -0.200 F 
ATOM      8  F2  LG1 d5015      20.882   8.096  61.055  0.00  0.00    -0.202 F 
ATOM      9  F6  LG1 d5015      23.293  11.810  62.774  0.00  0.00    -0.202 F 
ATOM     10  F7  LG1 d5015      24.149  12.415  60.271  0.00  0.00    -0.200 F 
ENDROOT
BRANCH   1  11
ATOM     11  N1  LG1 d5015      23.392  10.873  58.098  0.00  0.00    -0.232 N 
ATOM     12  N2  LG1 d5015      22.659  11.688  57.320  0.00  0.00    -0.172 NA
ATOM     13  C10 LG1 d5015      23.370  11.753  56.193  0.00  0.00     0.053 A 
ATOM     14  C9  LG1 d5015      24.549  10.984  56.248  0.00  0.00     0.055 A 
ATOM     15  C11 LG1 d5015      22.886  12.572  55.068  0.00  0.00     0.072 C 
ATOM     16  C8  LG1 d5015      24.533  10.424  57.502  0.00  0.00     0.035 A 
ATOM     17  C12 LG1 d5015      25.497   9.520  58.160  0.00  0.00     0.070 C 
ENDBRANCH   1  11
BRANCH   4  18
ATOM     18  C7  LG1 d5015      21.605   9.613  63.323  0.00  0.00     0.423 C 
ATOM     19  F4  LG1 d5015      22.015  10.506  64.271  0.00  0.00    -0.166 F 
ATOM     20  F3  LG1 d5015      22.035   8.397  63.770  0.00  0.00    -0.166 F 
ATOM     21  F5  LG1 d5015      20.244   9.577  63.418  0.00  0.00    -0.166 F 
ENDBRANCH   4  18
TORSDOF 2
ENDMDL
