REMARK INTER + INTRA:          -8.725
REMARK INTER:                  -8.683
REMARK INTRA:                  -0.043
REMARK UNBOUND:                -0.027
REMARK  1 active torsions:
REMARK  status: ('A' for Active; 'I' for Inactive)
REMARK    1  A    between atoms: C10_13  and  C11_14 
ROOT
ATOM      1  C1  LG1 d5015      22.655   9.972  58.992  0.00  0.00     0.018 C 
ATOM      2  C2  LG1 d5015      22.791   8.769  59.850  0.00  0.00     0.193 C 
ATOM      3  C3  LG1 d5015      22.486   8.998  61.278  0.00  0.00     0.049 A 
ATOM      4  C4  LG1 d5015      22.684   7.975  62.209  0.00  0.00     0.037 A 
ATOM      5  C5  LG1 d5015      22.337   8.180  63.545  0.00  0.00     0.012 A 
ATOM      6  C6  LG1 d5015      21.786   9.397  63.950  0.00  0.00     0.022 A 
ATOM      7  C7  LG1 d5015      21.585  10.417  63.019  0.00  0.00     0.039 A 
ATOM      8  C8  LG1 d5015      21.951  10.225  61.686  0.00  0.00     0.083 A 
ATOM      9  O1  LG1 d5015      21.711  11.261  60.822  0.00  0.00    -0.346 OA
ATOM     10  C9  LG1 d5015      22.607  11.284  59.707  0.00  0.00     0.218 C 
ATOM     11 BR1  LG1 d5015      22.630   6.811  64.816  0.00  0.00    -0.051 Br
ATOM     12  O2  LG1 d5015      23.126   7.671  59.430  0.00  0.00    -0.287 OA
ATOM     13  C10 LG1 d5015      22.591   9.828  57.663  0.00  0.00     0.025 C 
ENDROOT
BRANCH  13  14
ATOM     14  C11 LG1 d5015      22.459  10.910  56.734  0.00  0.00    -0.029 A 
ATOM     15  C14 LG1 d5015      21.301  11.643  56.599  0.00  0.00     0.061 A 
ATOM     16  S1  LG1 d5015      21.451  12.867  55.412  0.00  0.00    -0.113 SA
ATOM     17  C13 LG1 d5015      23.068  12.418  55.074  0.00  0.00     0.050 A 
ATOM     18  C12 LG1 d5015      23.483  11.360  55.850  0.00  0.00     0.019 A 
ENDBRANCH  13  14
TORSDOF 1
ENDMDL
