REMARK INTER + INTRA:          -8.748
REMARK INTER:                  -8.720
REMARK INTRA:                  -0.028
REMARK UNBOUND:                 0.051
REMARK  1 active torsions:
REMARK  status: ('A' for Active; 'I' for Inactive)
REMARK    1  A    between atoms: C10_13  and  C11_14 
ROOT
ATOM      1  C1  LG1 d5015      22.664   9.982  59.044  0.00  0.00     0.018 C 
ATOM      2  C2  LG1 d5015      22.875   8.797  59.913  0.00  0.00     0.193 C 
ATOM      3  C3  LG1 d5015      22.501   9.002  61.328  0.00  0.00     0.049 A 
ATOM      4  C4  LG1 d5015      22.755   8.004  62.271  0.00  0.00     0.037 A 
ATOM      5  C5  LG1 d5015      22.344   8.181  63.593  0.00  0.00     0.012 A 
ATOM      6  C6  LG1 d5015      21.674   9.345  63.971  0.00  0.00     0.022 A 
ATOM      7  C7  LG1 d5015      21.417  10.340  63.027  0.00  0.00     0.039 A 
ATOM      8  C8  LG1 d5015      21.844  10.178  61.710  0.00  0.00     0.083 A 
ATOM      9  O1  LG1 d5015      21.544  11.187  60.832  0.00  0.00    -0.346 OA
ATOM     10  C9  LG1 d5015      22.474  11.286  59.748  0.00  0.00     0.218 C 
ATOM     11 BR1  LG1 d5015      22.713   6.847  64.882  0.00  0.00    -0.051 Br
ATOM     12  O2  LG1 d5015      23.321   7.732  59.511  0.00  0.00    -0.287 OA
ATOM     13  C10 LG1 d5015      22.659   9.829  57.714  0.00  0.00     0.025 C 
ENDROOT
BRANCH  13  14
ATOM     14  C11 LG1 d5015      22.465  10.892  56.774  0.00  0.00    -0.029 A 
ATOM     15  C14 LG1 d5015      21.259  11.536  56.613  0.00  0.00     0.061 A 
ATOM     16  S1  LG1 d5015      21.340  12.761  55.420  0.00  0.00    -0.113 SA
ATOM     17  C13 LG1 d5015      22.991  12.431  55.115  0.00  0.00     0.050 A 
ATOM     18  C12 LG1 d5015      23.469  11.411  55.906  0.00  0.00     0.019 A 
ENDBRANCH  13  14
TORSDOF 1
ENDMDL
