REMARK INTER + INTRA:          -8.410
REMARK INTER:                  -8.575
REMARK INTRA:                   0.165
REMARK UNBOUND:                 0.195
REMARK  1 active torsions:
REMARK  status: ('A' for Active; 'I' for Inactive)
REMARK    1  A    between atoms: C10_13  and  C11_14 
ROOT
ATOM      1  C1  LG1 d5015      22.491   9.917  59.542  0.00  0.00     0.018 C 
ATOM      2  C2  LG1 d5015      21.996   9.695  60.924  0.00  0.00     0.193 C 
ATOM      3  C3  LG1 d5015      22.736   8.665  61.682  0.00  0.00     0.049 A 
ATOM      4  C4  LG1 d5015      22.301   8.282  62.952  0.00  0.00     0.037 A 
ATOM      5  C5  LG1 d5015      23.041   7.353  63.685  0.00  0.00     0.012 A 
ATOM      6  C6  LG1 d5015      24.215   6.815  63.158  0.00  0.00     0.022 A 
ATOM      7  C7  LG1 d5015      24.652   7.201  61.889  0.00  0.00     0.039 A 
ATOM      8  C8  LG1 d5015      23.905   8.113  61.143  0.00  0.00     0.083 A 
ATOM      9  O1  LG1 d5015      24.399   8.460  59.914  0.00  0.00    -0.346 OA
ATOM     10  C9  LG1 d5015      23.382   8.853  58.987  0.00  0.00     0.218 C 
ATOM     11 BR1  LG1 d5015      22.441   6.807  65.394  0.00  0.00    -0.051 Br
ATOM     12  O2  LG1 d5015      21.054  10.303  61.412  0.00  0.00    -0.287 OA
ATOM     13  C10 LG1 d5015      22.122  11.020  58.881  0.00  0.00     0.025 C 
ENDROOT
BRANCH  13  14
ATOM     14  C11 LG1 d5015      22.533  11.345  57.548  0.00  0.00    -0.029 A 
ATOM     15  C14 LG1 d5015      21.650  11.732  56.566  0.00  0.00     0.061 A 
ATOM     16  S1  LG1 d5015      22.439  12.053  55.081  0.00  0.00    -0.113 SA
ATOM     17  C13 LG1 d5015      23.969  11.675  55.749  0.00  0.00     0.050 A 
ATOM     18  C12 LG1 d5015      23.877  11.313  57.075  0.00  0.00     0.019 A 
ENDBRANCH  13  14
TORSDOF 1
ENDMDL
