REMARK INTER + INTRA:          -8.133
REMARK INTER:                  -8.061
REMARK INTRA:                  -0.072
REMARK UNBOUND:                 0.107
REMARK  1 active torsions:
REMARK  status: ('A' for Active; 'I' for Inactive)
REMARK    1  A    between atoms: C10_13  and  C11_14 
ROOT
ATOM      1  C1  LG1 d5015      22.915   9.710  61.213  0.00  0.00     0.018 C 
ATOM      2  C2  LG1 d5015      23.101  10.978  60.464  0.00  0.00     0.193 C 
ATOM      3  C3  LG1 d5015      22.665  10.925  59.053  0.00  0.00     0.049 A 
ATOM      4  C4  LG1 d5015      22.890  12.015  58.210  0.00  0.00     0.037 A 
ATOM      5  C5  LG1 d5015      22.421  11.981  56.896  0.00  0.00     0.012 A 
ATOM      6  C6  LG1 d5015      21.723  10.868  56.427  0.00  0.00     0.022 A 
ATOM      7  C7  LG1 d5015      21.495   9.780  57.271  0.00  0.00     0.039 A 
ATOM      8  C8  LG1 d5015      21.980   9.800  58.579  0.00  0.00     0.083 A 
ATOM      9  O1  LG1 d5015      21.707   8.707  59.359  0.00  0.00    -0.346 OA
ATOM     10  C9  LG1 d5015      22.681   8.488  60.384  0.00  0.00     0.218 C 
ATOM     11 BR1  LG1 d5015      22.749  13.441  55.739  0.00  0.00    -0.051 Br
ATOM     12  O2  LG1 d5015      23.576  11.991  60.955  0.00  0.00    -0.287 OA
ATOM     13  C10 LG1 d5015      22.968   9.722  62.550  0.00  0.00     0.025 C 
ENDROOT
BRANCH  13  14
ATOM     14  C11 LG1 d5015      22.803   8.567  63.381  0.00  0.00    -0.029 A 
ATOM     15  C14 LG1 d5015      21.681   8.354  64.149  0.00  0.00     0.061 A 
ATOM     16  S1  LG1 d5015      21.774   6.889  65.029  0.00  0.00    -0.113 SA
ATOM     17  C13 LG1 d5015      23.319   6.535  64.383  0.00  0.00     0.050 A 
ATOM     18  C12 LG1 d5015      23.752   7.513  63.516  0.00  0.00     0.019 A 
ENDBRANCH  13  14
TORSDOF 1
ENDMDL
