REMARK INTER + INTRA:          -8.785
REMARK INTER:                  -8.757
REMARK INTRA:                  -0.028
REMARK UNBOUND:                 0.274
REMARK  1 active torsions:
REMARK  status: ('A' for Active; 'I' for Inactive)
REMARK    1  A    between atoms: C10_13  and  C11_14 
ROOT
ATOM      1  C1  LG1 d5015      22.681   9.976  59.083  0.00  0.00     0.018 C 
ATOM      2  C2  LG1 d5015      22.827   8.780  59.950  0.00  0.00     0.193 C 
ATOM      3  C3  LG1 d5015      22.491   9.009  61.371  0.00  0.00     0.049 A 
ATOM      4  C4  LG1 d5015      22.694   7.996  62.310  0.00  0.00     0.037 A 
ATOM      5  C5  LG1 d5015      22.318   8.200  63.639  0.00  0.00     0.012 A 
ATOM      6  C6  LG1 d5015      21.733   9.406  64.027  0.00  0.00     0.022 A 
ATOM      7  C7  LG1 d5015      21.527  10.416  63.086  0.00  0.00     0.039 A 
ATOM      8  C8  LG1 d5015      21.921  10.226  61.762  0.00  0.00     0.083 A 
ATOM      9  O1  LG1 d5015      21.674  11.252  60.888  0.00  0.00    -0.346 OA
ATOM     10  C9  LG1 d5015      22.590  11.290  59.789  0.00  0.00     0.218 C 
ATOM     11 BR1  LG1 d5015      22.618   6.844  64.923  0.00  0.00    -0.051 Br
ATOM     12  O2  LG1 d5015      23.195   7.688  59.542  0.00  0.00    -0.287 OA
ATOM     13  C10 LG1 d5015      22.644   9.823  57.753  0.00  0.00     0.025 C 
ENDROOT
BRANCH  13  14
ATOM     14  C11 LG1 d5015      22.506  10.897  56.816  0.00  0.00    -0.029 A 
ATOM     15  C14 LG1 d5015      21.344  11.623  56.677  0.00  0.00     0.061 A 
ATOM     16  S1  LG1 d5015      21.486  12.839  55.479  0.00  0.00    -0.113 SA
ATOM     17  C13 LG1 d5015      23.105  12.396  55.144  0.00  0.00     0.050 A 
ATOM     18  C12 LG1 d5015      23.527  11.345  55.928  0.00  0.00     0.019 A 
ENDBRANCH  13  14
TORSDOF 1
ENDMDL
