REMARK INTER + INTRA:          -8.416
REMARK INTER:                  -8.592
REMARK INTRA:                   0.176
REMARK UNBOUND:                 0.051
REMARK  1 active torsions:
REMARK  status: ('A' for Active; 'I' for Inactive)
REMARK    1  A    between atoms: C10_13  and  C11_14 
ROOT
ATOM      1  C1  LG1 d5015      22.490   9.906  59.536  0.00  0.00     0.018 C 
ATOM      2  C2  LG1 d5015      21.988   9.678  60.914  0.00  0.00     0.193 C 
ATOM      3  C3  LG1 d5015      22.734   8.653  61.675  0.00  0.00     0.049 A 
ATOM      4  C4  LG1 d5015      22.295   8.264  62.942  0.00  0.00     0.037 A 
ATOM      5  C5  LG1 d5015      23.039   7.341  63.678  0.00  0.00     0.012 A 
ATOM      6  C6  LG1 d5015      24.222   6.815  63.157  0.00  0.00     0.022 A 
ATOM      7  C7  LG1 d5015      24.662   7.208  61.892  0.00  0.00     0.039 A 
ATOM      8  C8  LG1 d5015      23.911   8.113  61.142  0.00  0.00     0.083 A 
ATOM      9  O1  LG1 d5015      24.410   8.468  59.917  0.00  0.00    -0.346 OA
ATOM     10  C9  LG1 d5015      23.394   8.853  58.984  0.00  0.00     0.218 C 
ATOM     11 BR1  LG1 d5015      22.434   6.786  65.382  0.00  0.00    -0.051 Br
ATOM     12  O2  LG1 d5015      21.038  10.275  61.398  0.00  0.00    -0.287 OA
ATOM     13  C10 LG1 d5015      22.114  11.008  58.874  0.00  0.00     0.025 C 
ENDROOT
BRANCH  13  14
ATOM     14  C11 LG1 d5015      22.531  11.338  57.545  0.00  0.00    -0.029 A 
ATOM     15  C14 LG1 d5015      21.651  11.733  56.562  0.00  0.00     0.061 A 
ATOM     16  S1  LG1 d5015      22.446  12.062  55.082  0.00  0.00    -0.113 SA
ATOM     17  C13 LG1 d5015      23.972  11.675  55.753  0.00  0.00     0.050 A 
ATOM     18  C12 LG1 d5015      23.876  11.305  57.076  0.00  0.00     0.019 A 
ENDBRANCH  13  14
TORSDOF 1
ENDMDL
