
     RDKit          3D

 59 62  0  0  0  0  0  0  0  0999 V2000
    0.0033   -0.1753   -0.9549 C   0  0  1  0  0  0  0  0  0  0  0  0
    1.3915    0.4609   -0.8096 C   0  0  1  0  0  0  0  0  0  0  0  0
    2.1473   -0.0028    0.4579 C   0  0  2  0  0  0  0  0  0  0  0  0
    3.4819    0.7709    0.2480 C   0  0  2  0  0  0  0  0  0  0  0  0
    3.7564    0.6076   -1.2691 C   0  0  0  0  0  0  0  0  0  0  0  0
    2.4087    0.2690   -1.9278 C   0  0  0  0  0  0  0  0  0  0  0  0
    4.6785    0.3740    1.1276 C   0  0  0  0  0  0  0  0  0  0  0  0
    5.9096    1.2329    0.8514 C   0  0  0  0  0  0  0  0  0  0  0  0
    4.3238    0.5386    2.4980 O   0  0  0  0  0  0  0  0  0  0  0  0
    2.3995   -1.5302    0.5170 C   0  0  0  0  0  0  0  0  0  0  0  0
    1.3140    0.4303    1.6756 C   0  0  0  0  0  0  0  0  0  0  0  0
   -0.1218   -0.1231    1.6130 C   0  0  0  0  0  0  0  0  0  0  0  0
   -0.8542    0.2211    0.2884 C   0  0  2  0  0  0  0  0  0  0  0  0
   -2.3296   -0.3259    0.2023 C   0  0  2  0  0  0  0  0  0  0  0  0
   -2.9438    0.1383   -1.1541 C   0  0  0  0  0  0  0  0  0  0  0  0
   -4.4089   -0.3051   -1.3312 C   0  0  0  0  0  0  0  0  0  0  0  0
   -5.2705   -0.0629   -0.0868 C   0  0  2  0  0  0  0  0  0  0  0  0
   -4.5701    0.7936    0.9606 C   0  0  0  0  0  0  0  0  0  0  0  0
   -3.1911    0.2573    1.3695 C   0  0  0  0  0  0  0  0  0  0  0  0
   -5.6318   -1.3191    0.4839 O   0  0  0  0  0  0  0  0  0  0  0  0
   -2.1024   -0.2748   -2.3680 C   0  0  0  0  0  0  0  0  0  0  0  0
   -0.6776    0.2580   -2.2596 C   0  0  0  0  0  0  0  0  0  0  0  0
   -2.3336   -1.8732    0.3182 C   0  0  0  0  0  0  0  0  0  0  0  0
    0.1134   -1.2640   -0.9943 H   0  0  0  0  0  0  0  0  0  0  0  0
    1.2289    1.5495   -0.7344 H   0  0  0  0  0  0  0  0  0  0  0  0
    3.2747    1.8353    0.4387 H   0  0  0  0  0  0  0  0  0  0  0  0
    4.4770   -0.1928   -1.4720 H   0  0  0  0  0  0  0  0  0  0  0  0
    4.1700    1.5341   -1.6828 H   0  0  0  0  0  0  0  0  0  0  0  0
    2.4113   -0.7629   -2.2965 H   0  0  0  0  0  0  0  0  0  0  0  0
    2.2095    0.9248   -2.7815 H   0  0  0  0  0  0  0  0  0  0  0  0
    4.9408   -0.6780    0.9725 H   0  0  0  0  0  0  0  0  0  0  0  0
    5.6942    2.2926    1.0278 H   0  0  0  0  0  0  0  0  0  0  0  0
    6.2682    1.1130   -0.1748 H   0  0  0  0  0  0  0  0  0  0  0  0
    6.7247    0.9623    1.5317 H   0  0  0  0  0  0  0  0  0  0  0  0
    5.0770    0.2390    3.0351 H   0  0  0  0  0  0  0  0  0  0  0  0
    2.8896   -1.8046    1.4580 H   0  0  0  0  0  0  0  0  0  0  0  0
    1.4777   -2.1151    0.4636 H   0  0  0  0  0  0  0  0  0  0  0  0
    3.0429   -1.8801   -0.2963 H   0  0  0  0  0  0  0  0  0  0  0  0
    1.2656    1.5255    1.7289 H   0  0  0  0  0  0  0  0  0  0  0  0
    1.7815    0.0947    2.6081 H   0  0  0  0  0  0  0  0  0  0  0  0
   -0.6745    0.2812    2.4679 H   0  0  0  0  0  0  0  0  0  0  0  0
   -0.0874   -1.2067    1.7604 H   0  0  0  0  0  0  0  0  0  0  0  0
   -0.9348    1.3200    0.2708 H   0  0  0  0  0  0  0  0  0  0  0  0
   -2.9471    1.2395   -1.1512 H   0  0  0  0  0  0  0  0  0  0  0  0
   -4.8314    0.2738   -2.1633 H   0  0  0  0  0  0  0  0  0  0  0  0
   -4.4604   -1.3570   -1.6381 H   0  0  0  0  0  0  0  0  0  0  0  0
   -6.2075    0.4186   -0.3893 H   0  0  0  0  0  0  0  0  0  0  0  0
   -4.4549    1.8130    0.5708 H   0  0  0  0  0  0  0  0  0  0  0  0
   -5.1906    0.8730    1.8615 H   0  0  0  0  0  0  0  0  0  0  0  0
   -3.3242   -0.4989    2.1538 H   0  0  0  0  0  0  0  0  0  0  0  0
   -2.6699    1.0915    1.8548 H   0  0  0  0  0  0  0  0  0  0  0  0
   -6.1883   -1.1403    1.2610 H   0  0  0  0  0  0  0  0  0  0  0  0
   -2.0847   -1.3653   -2.4769 H   0  0  0  0  0  0  0  0  0  0  0  0
   -2.5571    0.1200   -3.2850 H   0  0  0  0  0  0  0  0  0  0  0  0
   -0.6967    1.3535   -2.3243 H   0  0  0  0  0  0  0  0  0  0  0  0
   -0.1024   -0.0985   -3.1220 H   0  0  0  0  0  0  0  0  0  0  0  0
   -1.7094   -2.3527   -0.4401 H   0  0  0  0  0  0  0  0  0  0  0  0
   -1.9687   -2.2043    1.2959 H   0  0  0  0  0  0  0  0  0  0  0  0
   -3.3363   -2.2934    0.2115 H   0  0  0  0  0  0  0  0  0  0  0  0
  2  1  1  0
  3  2  1  0
  4  3  1  0
  5  4  1  0
  6  5  1  0
  6  2  1  0
  7  4  1  0
  8  7  1  0
  9  7  1  0
  3 10  1  6
 11  3  1  0
 12 11  1  0
 13  1  1  0
 13 12  1  0
 14 13  1  0
 15 14  1  0
 16 15  1  0
 17 16  1  0
 18 17  1  0
 19 18  1  0
 19 14  1  0
 20 17  1  0
 21 15  1  0
 22  1  1  0
 22 21  1  0
 14 23  1  6
  1 24  1  6
  2 25  1  1
  4 26  1  6
  5 27  1  0
  5 28  1  0
  6 29  1  0
  6 30  1  0
  7 31  1  0
  8 32  1  0
  8 33  1  0
  8 34  1  0
  9 35  1  0
 10 36  1  0
 10 37  1  0
 10 38  1  0
 11 39  1  0
 11 40  1  0
 12 41  1  0
 12 42  1  0
 13 43  1  1
 15 44  1  0
 16 45  1  0
 16 46  1  0
 17 47  1  6
 18 48  1  0
 18 49  1  0
 19 50  1  0
 19 51  1  0
 20 52  1  0
 21 53  1  0
 21 54  1  0
 22 55  1  0
 22 56  1  0
 23 57  1  0
 23 58  1  0
 23 59  1  0
M  END
>  <CID>  (1) 
1

>  <Energy>  (1) 
86.82912729966576

$$$$
