
     RDKit          3D

 59 62  0  0  0  0  0  0  0  0999 V2000
    0.0107   -0.1126   -0.9765 C   0  0  1  0  0  0  0  0  0  0  0  0
    1.4108    0.5127   -0.9567 C   0  0  1  0  0  0  0  0  0  0  0  0
    2.2590    0.1302    0.2791 C   0  0  2  0  0  0  0  0  0  0  0  0
    3.5772    0.8785   -0.0844 C   0  0  2  0  0  0  0  0  0  0  0  0
    3.7281    0.6133   -1.6095 C   0  0  0  0  0  0  0  0  0  0  0  0
    2.3346    0.2394   -2.1362 C   0  0  0  0  0  0  0  0  0  0  0  0
    4.8862    0.5941    0.6778 C   0  0  0  0  0  0  0  0  0  0  0  0
    4.8044    0.8704    2.1721 C   0  0  0  0  0  0  0  0  0  0  0  0
    5.3286   -0.7438    0.4783 O   0  0  0  0  0  0  0  0  0  0  0  0
    2.4811   -1.3927    0.4253 C   0  0  0  0  0  0  0  0  0  0  0  0
    1.5079    0.6772    1.5065 C   0  0  0  0  0  0  0  0  0  0  0  0
    0.0843    0.1039    1.6055 C   0  0  0  0  0  0  0  0  0  0  0  0
   -0.7590    0.2727    0.3152 C   0  0  2  0  0  0  0  0  0  0  0  0
   -2.1897   -0.4141    0.3806 C   0  0  2  0  0  0  0  0  0  0  0  0
   -2.7154   -0.7433   -1.0614 C   0  0  0  0  0  0  0  0  0  0  0  0
   -4.2308   -0.9992   -1.1291 C   0  0  0  0  0  0  0  0  0  0  0  0
   -5.0639    0.0559   -0.4153 C   0  0  2  0  0  0  0  0  0  0  0  0
   -4.6200    0.2042    1.0332 C   0  0  0  0  0  0  0  0  0  0  0  0
   -3.1444    0.5731    1.1164 C   0  0  0  0  0  0  0  0  0  0  0  0
   -6.4304   -0.3437   -0.4556 O   0  0  0  0  0  0  0  0  0  0  0  0
   -2.2844    0.3332   -2.0606 C   0  0  0  0  0  0  0  0  0  0  0  0
   -0.7643    0.3520   -2.2282 C   0  0  0  0  0  0  0  0  0  0  0  0
   -2.1521   -1.7466    1.1692 C   0  0  0  0  0  0  0  0  0  0  0  0
    0.0995   -1.2048   -1.0236 H   0  0  0  0  0  0  0  0  0  0  0  0
    1.2602    1.6058   -0.9368 H   0  0  0  0  0  0  0  0  0  0  0  0
    3.3845    1.9564    0.0326 H   0  0  0  0  0  0  0  0  0  0  0  0
    4.4317   -0.1965   -1.8300 H   0  0  0  0  0  0  0  0  0  0  0  0
    4.1054    1.5126   -2.1095 H   0  0  0  0  0  0  0  0  0  0  0  0
    2.0692    0.8353   -3.0154 H   0  0  0  0  0  0  0  0  0  0  0  0
    2.3072   -0.8155   -2.4313 H   0  0  0  0  0  0  0  0  0  0  0  0
    5.6614    1.2450    0.2541 H   0  0  0  0  0  0  0  0  0  0  0  0
    4.2254    0.1020    2.6920 H   0  0  0  0  0  0  0  0  0  0  0  0
    5.8071    0.8376    2.6134 H   0  0  0  0  0  0  0  0  0  0  0  0
    4.3745    1.8550    2.3778 H   0  0  0  0  0  0  0  0  0  0  0  0
    6.1760   -0.8481    0.9438 H   0  0  0  0  0  0  0  0  0  0  0  0
    3.0589   -1.8122   -0.4041 H   0  0  0  0  0  0  0  0  0  0  0  0
    3.0197   -1.6193    1.3516 H   0  0  0  0  0  0  0  0  0  0  0  0
    1.5448   -1.9557    0.4644 H   0  0  0  0  0  0  0  0  0  0  0  0
    2.0413    0.4406    2.4321 H   0  0  0  0  0  0  0  0  0  0  0  0
    1.4448    1.7718    1.4563 H   0  0  0  0  0  0  0  0  0  0  0  0
   -0.4299    0.5924    2.4418 H   0  0  0  0  0  0  0  0  0  0  0  0
    0.1709   -0.9524    1.8763 H   0  0  0  0  0  0  0  0  0  0  0  0
   -0.9230    1.3585    0.2297 H   0  0  0  0  0  0  0  0  0  0  0  0
   -2.2442   -1.6792   -1.3976 H   0  0  0  0  0  0  0  0  0  0  0  0
   -4.4548   -1.9832   -0.6958 H   0  0  0  0  0  0  0  0  0  0  0  0
   -4.5594   -1.0810   -2.1734 H   0  0  0  0  0  0  0  0  0  0  0  0
   -4.9837    1.0150   -0.9394 H   0  0  0  0  0  0  0  0  0  0  0  0
   -4.8234   -0.7184    1.5903 H   0  0  0  0  0  0  0  0  0  0  0  0
   -5.2223    0.9781    1.5249 H   0  0  0  0  0  0  0  0  0  0  0  0
   -3.0344    1.5797    0.6918 H   0  0  0  0  0  0  0  0  0  0  0  0
   -2.8589    0.6579    2.1722 H   0  0  0  0  0  0  0  0  0  0  0  0
   -6.9489    0.3392    0.0030 H   0  0  0  0  0  0  0  0  0  0  0  0
   -2.7440    0.1653   -3.0420 H   0  0  0  0  0  0  0  0  0  0  0  0
   -2.6267    1.3200   -1.7261 H   0  0  0  0  0  0  0  0  0  0  0  0
   -0.4854   -0.2983   -3.0674 H   0  0  0  0  0  0  0  0  0  0  0  0
   -0.4688    1.3667   -2.5228 H   0  0  0  0  0  0  0  0  0  0  0  0
   -1.3845   -2.4179    0.7681 H   0  0  0  0  0  0  0  0  0  0  0  0
   -3.1051   -2.2823    1.1207 H   0  0  0  0  0  0  0  0  0  0  0  0
   -1.9440   -1.5851    2.2323 H   0  0  0  0  0  0  0  0  0  0  0  0
  2  1  1  0
  3  2  1  0
  4  3  1  0
  5  4  1  0
  6  5  1  0
  6  2  1  0
  7  4  1  0
  8  7  1  0
  9  7  1  0
  3 10  1  1
 11  3  1  0
 12 11  1  0
 13  1  1  0
 13 12  1  0
 14 13  1  0
 15 14  1  0
 16 15  1  0
 17 16  1  0
 18 17  1  0
 19 18  1  0
 19 14  1  0
 20 17  1  0
 21 15  1  0
 22  1  1  0
 22 21  1  0
 14 23  1  1
  1 24  1  6
  2 25  1  1
  4 26  1  6
  5 27  1  0
  5 28  1  0
  6 29  1  0
  6 30  1  0
  7 31  1  0
  8 32  1  0
  8 33  1  0
  8 34  1  0
  9 35  1  0
 10 36  1  0
 10 37  1  0
 10 38  1  0
 11 39  1  0
 11 40  1  0
 12 41  1  0
 12 42  1  0
 13 43  1  6
 15 44  1  0
 16 45  1  0
 16 46  1  0
 17 47  1  6
 18 48  1  0
 18 49  1  0
 19 50  1  0
 19 51  1  0
 20 52  1  0
 21 53  1  0
 21 54  1  0
 22 55  1  0
 22 56  1  0
 23 57  1  0
 23 58  1  0
 23 59  1  0
M  END
>  <CID>  (1) 
1

>  <Energy>  (1) 
86.82912729966576

$$$$
