
     RDKit          3D

 38 39  0  0  0  0  0  0  0  0999 V2000
    0.3675    0.8206    0.0169 C   0  0  0  0  0  0  0  0  0  0  0  0
    1.0204    0.6001   -1.3688 C   0  0  0  0  0  0  0  0  0  0  0  0
    2.4906    1.0164   -1.4074 C   0  0  0  0  0  0  0  0  0  0  0  0
    3.3503    0.4081   -0.3102 C   0  0  0  0  0  0  0  0  0  0  0  0
    2.6987    0.6808    1.0321 C   0  0  0  0  0  0  0  0  0  0  0  0
    1.2481    0.2044    1.1347 C   0  0  0  0  0  0  0  0  0  0  0  0
    0.7990    0.5739    2.3688 F   0  0  0  0  0  0  0  0  0  0  0  0
    2.7098    2.0417    1.1913 F   0  0  0  0  0  0  0  0  0  0  0  0
    3.5883   -1.0671   -0.5111 C   0  0  1  0  0  0  0  0  0  0  0  0
    4.2990   -1.5690    0.5240 F   0  0  0  0  0  0  0  0  0  0  0  0
    2.4319   -1.7585   -0.5692 F   0  0  0  0  0  0  0  0  0  0  0  0
    4.2814   -1.3251   -1.6348 F   0  0  0  0  0  0  0  0  0  0  0  0
    3.0219    0.6712   -2.6128 F   0  0  0  0  0  0  0  0  0  0  0  0
    0.3547    1.3575   -2.2936 F   0  0  0  0  0  0  0  0  0  0  0  0
   -1.0673    0.4038   -0.0045 N   0  0  0  0  0  0  0  0  0  0  0  0
   -1.3311   -1.0331   -0.1801 C   0  0  0  0  0  0  0  0  0  0  0  0
   -2.3268   -1.4028    0.9167 C   0  0  0  0  0  0  0  0  0  0  0  0
   -2.8315   -0.0806    1.4618 C   0  0  0  0  0  0  0  0  0  0  0  0
   -4.1219    0.4027    0.8033 C   0  0  0  0  0  0  0  0  0  0  0  0
   -1.7149    0.8290    1.2160 N   0  0  0  0  0  0  0  0  0  0  0  0
   -1.9180   -1.2933   -1.5690 C   0  0  0  0  0  0  0  0  0  0  0  0
    0.3502    1.9090    0.1759 H   0  0  0  0  0  0  0  0  0  0  0  0
    0.9303   -0.4365   -1.7035 H   0  0  0  0  0  0  0  0  0  0  0  0
    2.5444    2.1105   -1.3572 H   0  0  0  0  0  0  0  0  0  0  0  0
    4.3268    0.9076   -0.3388 H   0  0  0  0  0  0  0  0  0  0  0  0
    3.2868    0.2713    1.8597 H   0  0  0  0  0  0  0  0  0  0  0  0
    1.2123   -0.8868    1.1153 H   0  0  0  0  0  0  0  0  0  0  0  0
   -0.4364   -1.6553   -0.0705 H   0  0  0  0  0  0  0  0  0  0  0  0
   -3.1345   -2.0578    0.5735 H   0  0  0  0  0  0  0  0  0  0  0  0
   -1.7873   -1.9307    1.7146 H   0  0  0  0  0  0  0  0  0  0  0  0
   -3.0105   -0.1624    2.5398 H   0  0  0  0  0  0  0  0  0  0  0  0
   -4.4481    1.3500    1.2469 H   0  0  0  0  0  0  0  0  0  0  0  0
   -4.9242   -0.3281    0.9503 H   0  0  0  0  0  0  0  0  0  0  0  0
   -4.0091    0.5653   -0.2727 H   0  0  0  0  0  0  0  0  0  0  0  0
   -2.0455    1.7956    1.1535 H   0  0  0  0  0  0  0  0  0  0  0  0
   -2.1527   -2.3566   -1.6897 H   0  0  0  0  0  0  0  0  0  0  0  0
   -1.2126   -1.0213   -2.3601 H   0  0  0  0  0  0  0  0  0  0  0  0
   -2.8400   -0.7295   -1.7412 H   0  0  0  0  0  0  0  0  0  0  0  0
  2  1  1  0
  3  2  1  0
  4  3  1  0
  5  4  1  0
  6  1  1  0
  6  5  1  0
  7  6  1  0
  8  5  1  0
  9  4  1  0
  9 10  1  1
 11  9  1  0
 12  9  1  0
 13  3  1  0
 14  2  1  0
 15  1  1  0
 16 15  1  0
 17 16  1  0
 18 17  1  0
 19 18  1  0
 20 18  1  0
 20 15  1  0
 21 16  1  0
  1 22  1  0
  2 23  1  0
  3 24  1  0
  4 25  1  0
  5 26  1  0
  6 27  1  0
 16 28  1  0
 17 29  1  0
 17 30  1  0
 18 31  1  0
 19 32  1  0
 19 33  1  0
 19 34  1  0
 20 35  1  0
 21 36  1  0
 21 37  1  0
 21 38  1  0
M  END
>  <CID>  (1) 
4

>  <Energy>  (1) 
24.77915129778797

$$$$
