
     RDKit          3D

 41 43  0  0  0  0  0  0  0  0999 V2000
    0.6658   -1.0628   -0.0816 C   0  0  0  0  0  0  0  0  0  0  0  0
   -0.0257    0.1875    0.4945 C   0  0  0  0  0  0  0  0  0  0  0  0
   -1.5628    0.0537    0.5370 C   0  0  0  0  0  0  0  0  0  0  0  0
   -2.2481    1.4336    0.4333 C   0  0  0  0  0  0  0  0  0  0  0  0
   -3.6353    1.3714   -0.2086 C   0  0  0  0  0  0  0  0  0  0  0  0
   -4.3552    0.0707    0.0997 C   0  0  0  0  0  0  0  0  0  0  0  0
   -3.5862   -1.1315   -0.4483 C   0  0  0  0  0  0  0  0  0  0  0  0
   -2.0655   -0.9255   -0.5247 C   0  0  0  0  0  0  0  0  0  0  0  0
   -1.4659   -2.2197   -0.4327 O   0  0  0  0  0  0  0  0  0  0  0  0
   -0.2074   -2.2796    0.2406 C   0  0  0  0  0  0  0  0  0  0  0  0
   -4.7074    2.8828    0.4071 Br  0  0  0  0  0  0  0  0  0  0  0  0
    0.4294    0.4446    1.8231 O   0  0  0  0  0  0  0  0  0  0  0  0
    2.1165   -1.3094    0.3834 C   0  0  0  0  0  0  0  0  0  0  0  0
    3.2250   -0.3403   -0.0696 C   0  0  0  0  0  0  0  0  0  0  0  0
    3.2669    1.0078    0.6497 C   0  0  0  0  0  0  0  0  0  0  0  0
    4.4343    1.7736    0.0445 C   0  0  0  0  0  0  0  0  0  0  0  0
    4.3715    1.3898   -1.7285 S   0  0  0  0  0  0  0  0  0  0  0  0
    3.2274   -0.0136   -1.5611 C   0  0  0  0  0  0  0  0  0  0  0  0
    0.6545   -0.9698   -1.1751 H   0  0  0  0  0  0  0  0  0  0  0  0
    0.2709    1.0437   -0.1214 H   0  0  0  0  0  0  0  0  0  0  0  0
   -1.8340   -0.3622    1.5197 H   0  0  0  0  0  0  0  0  0  0  0  0
   -1.6377    2.1317   -0.1537 H   0  0  0  0  0  0  0  0  0  0  0  0
   -2.2919    1.8618    1.4435 H   0  0  0  0  0  0  0  0  0  0  0  0
   -3.5543    1.5059   -1.2934 H   0  0  0  0  0  0  0  0  0  0  0  0
   -4.4683   -0.0427    1.1863 H   0  0  0  0  0  0  0  0  0  0  0  0
   -5.3715    0.0689   -0.3129 H   0  0  0  0  0  0  0  0  0  0  0  0
   -3.8294   -2.0148    0.1563 H   0  0  0  0  0  0  0  0  0  0  0  0
   -3.9494   -1.3676   -1.4572 H   0  0  0  0  0  0  0  0  0  0  0  0
   -1.8192   -0.5301   -1.5193 H   0  0  0  0  0  0  0  0  0  0  0  0
    0.2762   -3.2061   -0.0867 H   0  0  0  0  0  0  0  0  0  0  0  0
   -0.3866   -2.3750    1.3183 H   0  0  0  0  0  0  0  0  0  0  0  0
    0.0297    1.2800    2.1226 H   0  0  0  0  0  0  0  0  0  0  0  0
    2.1477   -1.4016    1.4767 H   0  0  0  0  0  0  0  0  0  0  0  0
    2.4104   -2.2989    0.0044 H   0  0  0  0  0  0  0  0  0  0  0  0
    4.1715   -0.8538    0.1633 H   0  0  0  0  0  0  0  0  0  0  0  0
    3.4022    0.8864    1.7296 H   0  0  0  0  0  0  0  0  0  0  0  0
    2.3485    1.5809    0.4938 H   0  0  0  0  0  0  0  0  0  0  0  0
    4.3517    2.8499    0.2179 H   0  0  0  0  0  0  0  0  0  0  0  0
    5.3888    1.4231    0.4492 H   0  0  0  0  0  0  0  0  0  0  0  0
    3.5615   -0.8609   -2.1663 H   0  0  0  0  0  0  0  0  0  0  0  0
    2.2512    0.3180   -1.9229 H   0  0  0  0  0  0  0  0  0  0  0  0
  2  1  1  0
  3  2  1  0
  4  3  1  0
  5  4  1  0
  6  5  1  0
  7  6  1  0
  8  7  1  0
  8  3  1  0
  9  8  1  0
 10  9  1  0
 10  1  1  0
 11  5  1  0
 12  2  1  0
 13  1  1  0
 14 13  1  0
 15 14  1  0
 16 15  1  0
 17 16  1  0
 18 17  1  0
 18 14  1  0
  1 19  1  0
  2 20  1  0
  3 21  1  0
  4 22  1  0
  4 23  1  0
  5 24  1  0
  6 25  1  0
  6 26  1  0
  7 27  1  0
  7 28  1  0
  8 29  1  0
 10 30  1  0
 10 31  1  0
 12 32  1  0
 13 33  1  0
 13 34  1  0
 14 35  1  0
 15 36  1  0
 15 37  1  0
 16 38  1  0
 16 39  1  0
 18 40  1  0
 18 41  1  0
M  END
>  <CID>  (1) 
4

>  <Energy>  (1) 
46.690347422754904

$$$$
