
     RDKit          3D

 38 39  0  0  0  0  0  0  0  0999 V2000
    0.3556   -0.7000   -0.5135 C   0  0  0  0  0  0  0  0  0  0  0  0
    1.3852   -0.9787    0.6207 C   0  0  0  0  0  0  0  0  0  0  0  0
    2.8209   -0.9800    0.1075 C   0  0  0  0  0  0  0  0  0  0  0  0
    3.2335    0.3819   -0.4417 C   0  0  0  0  0  0  0  0  0  0  0  0
    2.0213    1.2012   -0.8763 C   0  0  0  0  0  0  0  0  0  0  0  0
    0.9466    0.3276   -1.5108 C   0  0  0  0  0  0  0  0  0  0  0  0
    1.5135   -0.3625   -2.5467 F   0  0  0  0  0  0  0  0  0  0  0  0
    2.4365    2.1324   -1.7800 F   0  0  0  0  0  0  0  0  0  0  0  0
    3.9793    1.1515    0.6157 C   0  0  1  0  0  0  0  0  0  0  0  0
    4.3643    2.3673    0.1841 F   0  0  0  0  0  0  0  0  0  0  0  0
    3.2110    1.3262    1.7135 F   0  0  0  0  0  0  0  0  0  0  0  0
    5.0891    0.4866    1.0034 F   0  0  0  0  0  0  0  0  0  0  0  0
    2.8934   -1.8806   -0.9191 F   0  0  0  0  0  0  0  0  0  0  0  0
    1.1143   -2.2024    1.1685 F   0  0  0  0  0  0  0  0  0  0  0  0
   -0.9668   -0.2103   -0.0184 N   0  0  0  0  0  0  0  0  0  0  0  0
   -2.1151   -0.6897   -0.8150 C   0  0  0  0  0  0  0  0  0  0  0  0
   -3.2736   -0.3234    0.1028 C   0  0  0  0  0  0  0  0  0  0  0  0
   -2.7171   -0.5491    1.5025 C   0  0  0  0  0  0  0  0  0  0  0  0
   -3.0673    0.5789    2.4633 C   0  0  0  0  0  0  0  0  0  0  0  0
   -1.2573   -0.6595    1.3389 N   0  0  0  0  0  0  0  0  0  0  0  0
   -2.2781   -0.0577   -2.1900 C   0  0  0  0  0  0  0  0  0  0  0  0
    0.2037   -1.6542   -1.0362 H   0  0  0  0  0  0  0  0  0  0  0  0
    1.3006   -0.2447    1.4306 H   0  0  0  0  0  0  0  0  0  0  0  0
    3.5035   -1.3507    0.8785 H   0  0  0  0  0  0  0  0  0  0  0  0
    3.9014    0.2408   -1.3000 H   0  0  0  0  0  0  0  0  0  0  0  0
    1.5816    1.7586   -0.0408 H   0  0  0  0  0  0  0  0  0  0  0  0
    0.1871    0.9693   -1.9638 H   0  0  0  0  0  0  0  0  0  0  0  0
   -2.0812   -1.7834   -0.9238 H   0  0  0  0  0  0  0  0  0  0  0  0
   -4.1477   -0.9554   -0.0886 H   0  0  0  0  0  0  0  0  0  0  0  0
   -3.5734    0.7227   -0.0415 H   0  0  0  0  0  0  0  0  0  0  0  0
   -3.1017   -1.4931    1.9075 H   0  0  0  0  0  0  0  0  0  0  0  0
   -4.1535    0.6696    2.5695 H   0  0  0  0  0  0  0  0  0  0  0  0
   -2.6813    1.5435    2.1145 H   0  0  0  0  0  0  0  0  0  0  0  0
   -2.6472    0.3887    3.4570 H   0  0  0  0  0  0  0  0  0  0  0  0
   -0.9999   -1.6475    1.4712 H   0  0  0  0  0  0  0  0  0  0  0  0
   -1.4884   -0.3859   -2.8728 H   0  0  0  0  0  0  0  0  0  0  0  0
   -3.2363   -0.3493   -2.6337 H   0  0  0  0  0  0  0  0  0  0  0  0
   -2.2565    1.0363   -2.1371 H   0  0  0  0  0  0  0  0  0  0  0  0
  2  1  1  0
  3  2  1  0
  4  3  1  0
  5  4  1  0
  6  1  1  0
  6  5  1  0
  7  6  1  0
  8  5  1  0
  9  4  1  0
  9 10  1  6
 11  9  1  0
 12  9  1  0
 13  3  1  0
 14  2  1  0
 15  1  1  0
 16 15  1  0
 17 16  1  0
 18 17  1  0
 19 18  1  0
 20 18  1  0
 20 15  1  0
 21 16  1  0
  1 22  1  0
  2 23  1  0
  3 24  1  0
  4 25  1  0
  5 26  1  0
  6 27  1  0
 16 28  1  0
 17 29  1  0
 17 30  1  0
 18 31  1  0
 19 32  1  0
 19 33  1  0
 19 34  1  0
 20 35  1  0
 21 36  1  0
 21 37  1  0
 21 38  1  0
M  END
>  <CID>  (1) 
4

>  <Energy>  (1) 
24.77915129778797

$$$$
