
     RDKit          3D

 38 39  0  0  0  0  0  0  0  0999 V2000
    0.4463   -0.5929    0.2034 C   0  0  0  0  0  0  0  0  0  0  0  0
    1.0762   -0.6425   -1.2179 C   0  0  0  0  0  0  0  0  0  0  0  0
    2.5956   -0.6036   -1.1524 C   0  0  0  0  0  0  0  0  0  0  0  0
    3.0916    0.7459   -0.6372 C   0  0  0  0  0  0  0  0  0  0  0  0
    2.1767    1.3235    0.4374 C   0  0  0  0  0  0  0  0  0  0  0  0
    1.3621    0.2540    1.1546 C   0  0  0  0  0  0  0  0  0  0  0  0
    0.6575    0.8502    2.1600 F   0  0  0  0  0  0  0  0  0  0  0  0
    1.3106    2.1800   -0.1827 F   0  0  0  0  0  0  0  0  0  0  0  0
    4.4923    0.6126   -0.1071 C   0  0  1  0  0  0  0  0  0  0  0  0
    5.3122    0.0643   -1.0282 F   0  0  0  0  0  0  0  0  0  0  0  0
    4.9979    1.8255    0.2095 F   0  0  0  0  0  0  0  0  0  0  0  0
    4.5410   -0.1442    1.0074 F   0  0  0  0  0  0  0  0  0  0  0  0
    2.9975   -1.6020   -0.3205 F   0  0  0  0  0  0  0  0  0  0  0  0
    0.6851    0.4195   -1.9736 F   0  0  0  0  0  0  0  0  0  0  0  0
   -0.9989   -0.2193    0.2244 N   0  0  0  0  0  0  0  0  0  0  0  0
   -1.8701   -1.0430   -0.6421 C   0  0  0  0  0  0  0  0  0  0  0  0
   -3.1361   -1.3048    0.1864 C   0  0  0  0  0  0  0  0  0  0  0  0
   -2.9550   -0.5079    1.4634 C   0  0  0  0  0  0  0  0  0  0  0  0
   -3.6038    0.8745    1.4111 C   0  0  0  0  0  0  0  0  0  0  0  0
   -1.5023   -0.4376    1.5759 N   0  0  0  0  0  0  0  0  0  0  0  0
   -2.2384   -0.3201   -1.9371 C   0  0  0  0  0  0  0  0  0  0  0  0
    0.5140   -1.6213    0.5932 H   0  0  0  0  0  0  0  0  0  0  0  0
    0.7506   -1.5524   -1.7332 H   0  0  0  0  0  0  0  0  0  0  0  0
    3.0262   -0.8019   -2.1399 H   0  0  0  0  0  0  0  0  0  0  0  0
    3.1050    1.4494   -1.4797 H   0  0  0  0  0  0  0  0  0  0  0  0
    2.7219    1.9331    1.1650 H   0  0  0  0  0  0  0  0  0  0  0  0
    2.0522   -0.4316    1.6609 H   0  0  0  0  0  0  0  0  0  0  0  0
   -1.4155   -2.0123   -0.8839 H   0  0  0  0  0  0  0  0  0  0  0  0
   -4.0652   -1.0497   -0.3347 H   0  0  0  0  0  0  0  0  0  0  0  0
   -3.1785   -2.3742    0.4325 H   0  0  0  0  0  0  0  0  0  0  0  0
   -3.3708   -1.0536    2.3176 H   0  0  0  0  0  0  0  0  0  0  0  0
   -3.2378    1.4767    0.5730 H   0  0  0  0  0  0  0  0  0  0  0  0
   -3.4058    1.4299    2.3344 H   0  0  0  0  0  0  0  0  0  0  0  0
   -4.6897    0.7812    1.3036 H   0  0  0  0  0  0  0  0  0  0  0  0
   -1.2213    0.3380    2.1898 H   0  0  0  0  0  0  0  0  0  0  0  0
   -3.0004   -0.8840   -2.4869 H   0  0  0  0  0  0  0  0  0  0  0  0
   -2.6416    0.6796   -1.7419 H   0  0  0  0  0  0  0  0  0  0  0  0
   -1.3812   -0.2141   -2.6047 H   0  0  0  0  0  0  0  0  0  0  0  0
  2  1  1  0
  3  2  1  0
  4  3  1  0
  5  4  1  0
  6  1  1  0
  6  5  1  0
  7  6  1  0
  8  5  1  0
  9  4  1  0
  9 10  1  6
 11  9  1  0
 12  9  1  0
 13  3  1  0
 14  2  1  0
 15  1  1  0
 16 15  1  0
 17 16  1  0
 18 17  1  0
 19 18  1  0
 20 18  1  0
 20 15  1  0
 21 16  1  0
  1 22  1  0
  2 23  1  0
  3 24  1  0
  4 25  1  0
  5 26  1  0
  6 27  1  0
 16 28  1  0
 17 29  1  0
 17 30  1  0
 18 31  1  0
 19 32  1  0
 19 33  1  0
 19 34  1  0
 20 35  1  0
 21 36  1  0
 21 37  1  0
 21 38  1  0
M  END
>  <CID>  (1) 
4

>  <Energy>  (1) 
24.77915129778797

$$$$
