
     RDKit          3D

 38 39  0  0  0  0  0  0  0  0999 V2000
    0.3424   -0.0067   -0.0251 C   0  0  0  0  0  0  0  0  0  0  0  0
    1.3219   -0.8576    0.8192 C   0  0  0  0  0  0  0  0  0  0  0  0
    2.6966   -0.9485    0.1722 C   0  0  0  0  0  0  0  0  0  0  0  0
    3.3162    0.4254    0.0127 C   0  0  0  0  0  0  0  0  0  0  0  0
    2.4045    1.3144   -0.8080 C   0  0  0  0  0  0  0  0  0  0  0  0
    0.9841    1.3857   -0.2471 C   0  0  0  0  0  0  0  0  0  0  0  0
    0.2404    2.0957   -1.1485 F   0  0  0  0  0  0  0  0  0  0  0  0
    2.9238    2.5768   -0.7927 F   0  0  0  0  0  0  0  0  0  0  0  0
    4.6661    0.3122   -0.6466 C   0  0  1  0  0  0  0  0  0  0  0  0
    4.5842   -0.1641   -1.9047 F   0  0  0  0  0  0  0  0  0  0  0  0
    5.2976    1.5031   -0.6975 F   0  0  0  0  0  0  0  0  0  0  0  0
    5.4626   -0.5256    0.0577 F   0  0  0  0  0  0  0  0  0  0  0  0
    2.5554   -1.5246   -1.0512 F   0  0  0  0  0  0  0  0  0  0  0  0
    1.4790   -0.2970    2.0536 F   0  0  0  0  0  0  0  0  0  0  0  0
   -0.9913    0.1209    0.6287 N   0  0  0  0  0  0  0  0  0  0  0  0
   -2.0326    0.8072   -0.1630 C   0  0  0  0  0  0  0  0  0  0  0  0
   -3.2894    0.4489    0.6254 C   0  0  0  0  0  0  0  0  0  0  0  0
   -2.9809   -0.8996    1.2664 C   0  0  0  0  0  0  0  0  0  0  0  0
   -3.8517   -2.0281    0.7324 C   0  0  0  0  0  0  0  0  0  0  0  0
   -1.5649   -1.1694    0.9634 N   0  0  0  0  0  0  0  0  0  0  0  0
   -2.1807    0.3754   -1.6298 C   0  0  0  0  0  0  0  0  0  0  0  0
    0.2252   -0.5020   -0.9974 H   0  0  0  0  0  0  0  0  0  0  0  0
    0.9376   -1.8737    0.9562 H   0  0  0  0  0  0  0  0  0  0  0  0
    3.3442   -1.5930    0.7766 H   0  0  0  0  0  0  0  0  0  0  0  0
    3.4640    0.8797    1.0008 H   0  0  0  0  0  0  0  0  0  0  0  0
    2.3662    1.0024   -1.8580 H   0  0  0  0  0  0  0  0  0  0  0  0
    0.9862    1.9660    0.6833 H   0  0  0  0  0  0  0  0  0  0  0  0
   -1.8883    1.8930   -0.1289 H   0  0  0  0  0  0  0  0  0  0  0  0
   -3.4396    1.1930    1.4191 H   0  0  0  0  0  0  0  0  0  0  0  0
   -4.1937    0.4392    0.0074 H   0  0  0  0  0  0  0  0  0  0  0  0
   -3.1222   -0.8249    2.3521 H   0  0  0  0  0  0  0  0  0  0  0  0
   -3.7475   -2.1464   -0.3515 H   0  0  0  0  0  0  0  0  0  0  0  0
   -3.5863   -2.9816    1.2020 H   0  0  0  0  0  0  0  0  0  0  0  0
   -4.9076   -1.8323    0.9475 H   0  0  0  0  0  0  0  0  0  0  0  0
   -1.1411   -1.5534    1.8142 H   0  0  0  0  0  0  0  0  0  0  0  0
   -3.0600    0.8515   -2.0779 H   0  0  0  0  0  0  0  0  0  0  0  0
   -1.3162    0.6705   -2.2309 H   0  0  0  0  0  0  0  0  0  0  0  0
   -2.3043   -0.7076   -1.7323 H   0  0  0  0  0  0  0  0  0  0  0  0
  2  1  1  0
  3  2  1  0
  4  3  1  0
  5  4  1  0
  6  1  1  0
  6  5  1  0
  7  6  1  0
  8  5  1  0
  9  4  1  0
  9 10  1  6
 11  9  1  0
 12  9  1  0
 13  3  1  0
 14  2  1  0
 15  1  1  0
 16 15  1  0
 17 16  1  0
 18 17  1  0
 19 18  1  0
 20 18  1  0
 20 15  1  0
 21 16  1  0
  1 22  1  0
  2 23  1  0
  3 24  1  0
  4 25  1  0
  5 26  1  0
  6 27  1  0
 16 28  1  0
 17 29  1  0
 17 30  1  0
 18 31  1  0
 19 32  1  0
 19 33  1  0
 19 34  1  0
 20 35  1  0
 21 36  1  0
 21 37  1  0
 21 38  1  0
M  END
>  <CID>  (1) 
4

>  <Energy>  (1) 
24.77915129778797

$$$$
