
     RDKit          3D

 41 43  0  0  0  0  0  0  0  0999 V2000
    0.5253    0.2907   -0.0701 C   0  0  0  0  0  0  0  0  0  0  0  0
   -0.4872    0.2235    1.1003 C   0  0  0  0  0  0  0  0  0  0  0  0
   -1.8610   -0.3086    0.6553 C   0  0  0  0  0  0  0  0  0  0  0  0
   -2.9799    0.1824    1.5863 C   0  0  0  0  0  0  0  0  0  0  0  0
   -4.3447   -0.2972    1.1011 C   0  0  0  0  0  0  0  0  0  0  0  0
   -4.6141    0.1170   -0.3417 C   0  0  0  0  0  0  0  0  0  0  0  0
   -3.5067   -0.3747   -1.2680 C   0  0  0  0  0  0  0  0  0  0  0  0
   -2.1221    0.0799   -0.8004 C   0  0  0  0  0  0  0  0  0  0  0  0
   -1.1593   -0.4932   -1.6881 O   0  0  0  0  0  0  0  0  0  0  0  0
    0.1348   -0.7402   -1.1304 C   0  0  0  0  0  0  0  0  0  0  0  0
   -5.7348    0.4527    2.2532 Br  0  0  0  0  0  0  0  0  0  0  0  0
   -0.0358   -0.6243    2.1559 O   0  0  0  0  0  0  0  0  0  0  0  0
    1.9922    0.1844    0.4013 C   0  0  0  0  0  0  0  0  0  0  0  0
    3.0361    0.4334   -0.7150 C   0  0  0  0  0  0  0  0  0  0  0  0
    4.2791    1.1658   -0.1895 C   0  0  0  0  0  0  0  0  0  0  0  0
    5.0919    0.1790    0.6313 C   0  0  0  0  0  0  0  0  0  0  0  0
    4.9671   -1.3832   -0.2748 S   0  0  0  0  0  0  0  0  0  0  0  0
    3.5810   -0.8617   -1.3292 C   0  0  0  0  0  0  0  0  0  0  0  0
    0.3934    1.2799   -0.5324 H   0  0  0  0  0  0  0  0  0  0  0  0
   -0.5895    1.2309    1.5236 H   0  0  0  0  0  0  0  0  0  0  0  0
   -1.8403   -1.4070    0.7230 H   0  0  0  0  0  0  0  0  0  0  0  0
   -2.9627    1.2798    1.6328 H   0  0  0  0  0  0  0  0  0  0  0  0
   -2.7969   -0.1746    2.6077 H   0  0  0  0  0  0  0  0  0  0  0  0
   -4.4289   -1.3842    1.2094 H   0  0  0  0  0  0  0  0  0  0  0  0
   -4.6869    1.2097   -0.4196 H   0  0  0  0  0  0  0  0  0  0  0  0
   -5.5768   -0.2845   -0.6807 H   0  0  0  0  0  0  0  0  0  0  0  0
   -3.6873   -0.0190   -2.2897 H   0  0  0  0  0  0  0  0  0  0  0  0
   -3.5326   -1.4707   -1.3283 H   0  0  0  0  0  0  0  0  0  0  0  0
   -2.0612    1.1708   -0.9104 H   0  0  0  0  0  0  0  0  0  0  0  0
    0.1497   -1.7569   -0.7207 H   0  0  0  0  0  0  0  0  0  0  0  0
    0.8281   -0.7217   -1.9750 H   0  0  0  0  0  0  0  0  0  0  0  0
    0.6515   -0.1492    2.6540 H   0  0  0  0  0  0  0  0  0  0  0  0
    2.1624   -0.7936    0.8673 H   0  0  0  0  0  0  0  0  0  0  0  0
    2.1310    0.9359    1.1895 H   0  0  0  0  0  0  0  0  0  0  0  0
    2.5754    1.0474   -1.4984 H   0  0  0  0  0  0  0  0  0  0  0  0
    4.0165    2.0484    0.4039 H   0  0  0  0  0  0  0  0  0  0  0  0
    4.8785    1.5254   -1.0370 H   0  0  0  0  0  0  0  0  0  0  0  0
    6.1343    0.4934    0.7308 H   0  0  0  0  0  0  0  0  0  0  0  0
    4.6686    0.0475    1.6317 H   0  0  0  0  0  0  0  0  0  0  0  0
    2.8388   -1.6604   -1.3947 H   0  0  0  0  0  0  0  0  0  0  0  0
    3.9733   -0.6726   -2.3338 H   0  0  0  0  0  0  0  0  0  0  0  0
  2  1  1  0
  3  2  1  0
  4  3  1  0
  5  4  1  0
  6  5  1  0
  7  6  1  0
  8  7  1  0
  8  3  1  0
  9  8  1  0
 10  9  1  0
 10  1  1  0
 11  5  1  0
 12  2  1  0
 13  1  1  0
 14 13  1  0
 15 14  1  0
 16 15  1  0
 17 16  1  0
 18 17  1  0
 18 14  1  0
  1 19  1  0
  2 20  1  0
  3 21  1  0
  4 22  1  0
  4 23  1  0
  5 24  1  0
  6 25  1  0
  6 26  1  0
  7 27  1  0
  7 28  1  0
  8 29  1  0
 10 30  1  0
 10 31  1  0
 12 32  1  0
 13 33  1  0
 13 34  1  0
 14 35  1  0
 15 36  1  0
 15 37  1  0
 16 38  1  0
 16 39  1  0
 18 40  1  0
 18 41  1  0
M  END
>  <CID>  (1) 
4

>  <Energy>  (1) 
46.690347422754904

$$$$
