
     RDKit          3D

 38 39  0  0  0  0  0  0  0  0999 V2000
    0.3564    0.3716   -0.1979 C   0  0  0  0  0  0  0  0  0  0  0  0
    1.2320   -0.2514   -1.3100 C   0  0  0  0  0  0  0  0  0  0  0  0
    2.5025    0.5517   -1.5738 C   0  0  0  0  0  0  0  0  0  0  0  0
    3.3748    0.7516   -0.3515 C   0  0  0  0  0  0  0  0  0  0  0  0
    2.5348    1.3905    0.7387 C   0  0  0  0  0  0  0  0  0  0  0  0
    1.2245    0.6702    1.0547 C   0  0  0  0  0  0  0  0  0  0  0  0
    0.5122    1.5181    1.8710 F   0  0  0  0  0  0  0  0  0  0  0  0
    3.2853    1.4783    1.8711 F   0  0  0  0  0  0  0  0  0  0  0  0
    4.0139   -0.5402    0.0896 C   0  0  1  0  0  0  0  0  0  0  0  0
    3.0999   -1.4385    0.5032 F   0  0  0  0  0  0  0  0  0  0  0  0
    4.6843   -1.0996   -0.9435 F   0  0  0  0  0  0  0  0  0  0  0  0
    4.8982   -0.3559    1.0868 F   0  0  0  0  0  0  0  0  0  0  0  0
    2.1259    1.8031   -1.9876 F   0  0  0  0  0  0  0  0  0  0  0  0
    0.5364   -0.2870   -2.4861 F   0  0  0  0  0  0  0  0  0  0  0  0
   -0.7882   -0.5447    0.1074 N   0  0  0  0  0  0  0  0  0  0  0  0
   -1.8144   -0.5921   -0.9584 C   0  0  0  0  0  0  0  0  0  0  0  0
   -3.1257   -0.2249   -0.2726 C   0  0  0  0  0  0  0  0  0  0  0  0
   -2.8699   -0.5603    1.1807 C   0  0  0  0  0  0  0  0  0  0  0  0
   -3.7855    0.1898    2.1355 C   0  0  0  0  0  0  0  0  0  0  0  0
   -1.4643   -0.1889    1.3511 N   0  0  0  0  0  0  0  0  0  0  0  0
   -1.8707   -2.0080   -1.5345 C   0  0  0  0  0  0  0  0  0  0  0  0
   -0.0568    1.3268   -0.5509 H   0  0  0  0  0  0  0  0  0  0  0  0
    1.4794   -1.2899   -1.0694 H   0  0  0  0  0  0  0  0  0  0  0  0
    3.0618    0.1094   -2.4046 H   0  0  0  0  0  0  0  0  0  0  0  0
    4.1821    1.4510   -0.6022 H   0  0  0  0  0  0  0  0  0  0  0  0
    2.2984    2.4244    0.4589 H   0  0  0  0  0  0  0  0  0  0  0  0
    1.4199   -0.2353    1.6384 H   0  0  0  0  0  0  0  0  0  0  0  0
   -1.6330    0.1197   -1.7719 H   0  0  0  0  0  0  0  0  0  0  0  0
   -3.9912   -0.7628   -0.6733 H   0  0  0  0  0  0  0  0  0  0  0  0
   -3.3101    0.8511   -0.3925 H   0  0  0  0  0  0  0  0  0  0  0  0
   -2.9810   -1.6388    1.3500 H   0  0  0  0  0  0  0  0  0  0  0  0
   -4.8306   -0.0864    1.9607 H   0  0  0  0  0  0  0  0  0  0  0  0
   -3.7011    1.2754    2.0121 H   0  0  0  0  0  0  0  0  0  0  0  0
   -3.5422   -0.0497    3.1762 H   0  0  0  0  0  0  0  0  0  0  0  0
   -1.3932    0.8141    1.5615 H   0  0  0  0  0  0  0  0  0  0  0  0
   -2.6445   -2.0754   -2.3068 H   0  0  0  0  0  0  0  0  0  0  0  0
   -0.9178   -2.2885   -1.9947 H   0  0  0  0  0  0  0  0  0  0  0  0
   -2.1023   -2.7536   -0.7656 H   0  0  0  0  0  0  0  0  0  0  0  0
  2  1  1  0
  3  2  1  0
  4  3  1  0
  5  4  1  0
  6  1  1  0
  6  5  1  0
  7  6  1  0
  8  5  1  0
  9  4  1  0
  9 10  1  1
 11  9  1  0
 12  9  1  0
 13  3  1  0
 14  2  1  0
 15  1  1  0
 16 15  1  0
 17 16  1  0
 18 17  1  0
 19 18  1  0
 20 18  1  0
 20 15  1  0
 21 16  1  0
  1 22  1  0
  2 23  1  0
  3 24  1  0
  4 25  1  0
  5 26  1  0
  6 27  1  0
 16 28  1  0
 17 29  1  0
 17 30  1  0
 18 31  1  0
 19 32  1  0
 19 33  1  0
 19 34  1  0
 20 35  1  0
 21 36  1  0
 21 37  1  0
 21 38  1  0
M  END
>  <CID>  (1) 
4

>  <Energy>  (1) 
24.77915129778797

$$$$
