
     RDKit          3D

 59 62  0  0  0  0  0  0  0  0999 V2000
   23.7428    9.8325   59.7510 C   0  0  1  0  0  0  0  0  0  0  0  0
   24.2511    9.9742   58.2977 C   0  0  1  0  0  0  0  0  0  0  0  0
   23.1262   10.0536   57.2510 C   0  0  2  0  0  0  0  0  0  0  0  0
   23.9741   10.2927   55.9655 C   0  0  2  0  0  0  0  0  0  0  0  0
   25.1158   11.2324   56.4289 C   0  0  0  0  0  0  0  0  0  0  0  0
   25.1792   11.1343   57.9607 C   0  0  0  0  0  0  0  0  0  0  0  0
   23.2905   10.8076   54.6641 C   0  0  0  0  0  0  0  0  0  0  0  0
   22.2112    9.8570   54.1356 C   0  0  0  0  0  0  0  0  0  0  0  0
   22.7600   12.0973   54.8334 O   0  0  0  0  0  0  0  0  0  0  0  0
   22.1393   11.2379   57.4963 C   0  0  0  0  0  0  0  0  0  0  0  0
   22.3743    8.7025   57.3040 C   0  0  0  0  0  0  0  0  0  0  0  0
   21.8013    8.4315   58.7134 C   0  0  0  0  0  0  0  0  0  0  0  0
   22.8624    8.5402   59.8599 C   0  0  2  0  0  0  0  0  0  0  0  0
   22.2625    8.3690   61.3192 C   0  0  2  0  0  0  0  0  0  0  0  0
   23.3646    8.6823   62.4229 C   0  0  0  0  0  0  0  0  0  0  0  0
   23.3769    7.6820   63.6103 C   0  0  0  0  0  0  0  0  0  0  0  0
   21.9637    7.2740   64.0423 C   0  0  1  0  0  0  0  0  0  0  0  0
   21.1780    6.6053   62.8908 C   0  0  0  0  0  0  0  0  0  0  0  0
   21.7530    6.9042   61.4907 C   0  0  0  0  0  0  0  0  0  0  0  0
   22.0121    6.4313   65.1669 O   0  0  0  0  0  0  0  0  0  0  0  0
   24.7933    8.7480   61.8497 C   0  0  0  0  0  0  0  0  0  0  0  0
   24.9316    9.8036   60.7499 C   0  0  0  0  0  0  0  0  0  0  0  0
   21.0565    9.3361   61.5201 C   0  0  0  0  0  0  0  0  0  0  0  0
   23.1375   10.7225   60.0073 H   0  0  0  0  0  0  0  0  0  0  0  0
   24.8509    9.0512   58.0966 H   0  0  0  0  0  0  0  0  0  0  0  0
   24.4539    9.3218   55.6970 H   0  0  0  0  0  0  0  0  0  0  0  0
   26.0807   10.9125   55.9776 H   0  0  0  0  0  0  0  0  0  0  0  0
   24.9294   12.2890   56.1385 H   0  0  0  0  0  0  0  0  0  0  0  0
   24.8160   12.0742   58.4308 H   0  0  0  0  0  0  0  0  0  0  0  0
   26.2194   10.9380   58.2991 H   0  0  0  0  0  0  0  0  0  0  0  0
   24.0921   10.8507   53.8889 H   0  0  0  0  0  0  0  0  0  0  0  0
   21.2747    9.9569   54.7196 H   0  0  0  0  0  0  0  0  0  0  0  0
   21.9764   10.1129   53.0806 H   0  0  0  0  0  0  0  0  0  0  0  0
   22.5642    8.8043   54.1660 H   0  0  0  0  0  0  0  0  0  0  0  0
   22.6167   12.4732   53.9255 H   0  0  0  0  0  0  0  0  0  0  0  0
   21.6503   11.2011   58.4867 H   0  0  0  0  0  0  0  0  0  0  0  0
   22.6508   12.2198   57.4266 H   0  0  0  0  0  0  0  0  0  0  0  0
   21.3194   11.2178   56.7501 H   0  0  0  0  0  0  0  0  0  0  0  0
   21.5349    8.6907   56.5813 H   0  0  0  0  0  0  0  0  0  0  0  0
   23.0567    7.8687   57.0266 H   0  0  0  0  0  0  0  0  0  0  0  0
   20.9534    9.1217   58.8813 H   0  0  0  0  0  0  0  0  0  0  0  0
   21.3757    7.4075   58.6964 H   0  0  0  0  0  0  0  0  0  0  0  0
   23.5501    7.6817   59.6825 H   0  0  0  0  0  0  0  0  0  0  0  0
   23.1644    9.6889   62.8573 H   0  0  0  0  0  0  0  0  0  0  0  0
   23.9420    6.7635   63.3332 H   0  0  0  0  0  0  0  0  0  0  0  0
   23.9022    8.1448   64.4749 H   0  0  0  0  0  0  0  0  0  0  0  0
   21.4287    8.1952   64.3554 H   0  0  0  0  0  0  0  0  0  0  0  0
   21.1604    5.5013   63.0233 H   0  0  0  0  0  0  0  0  0  0  0  0
   20.1200    6.9448   62.9345 H   0  0  0  0  0  0  0  0  0  0  0  0
   20.9612    6.6674   60.7506 H   0  0  0  0  0  0  0  0  0  0  0  0
   22.5935    6.2010   61.2981 H   0  0  0  0  0  0  0  0  0  0  0  0
   22.5431    5.6286   64.9211 H   0  0  0  0  0  0  0  0  0  0  0  0
   25.5153    8.9911   62.6607 H   0  0  0  0  0  0  0  0  0  0  0  0
   25.0827    7.7535   61.4432 H   0  0  0  0  0  0  0  0  0  0  0  0
   25.8935    9.6013   60.2312 H   0  0  0  0  0  0  0  0  0  0  0  0
   25.0301   10.8060   61.2224 H   0  0  0  0  0  0  0  0  0  0  0  0
   20.7566    9.4041   62.5835 H   0  0  0  0  0  0  0  0  0  0  0  0
   21.2969   10.3671   61.1946 H   0  0  0  0  0  0  0  0  0  0  0  0
   20.1600    8.9906   60.9642 H   0  0  0  0  0  0  0  0  0  0  0  0
  2  1  1  0
  3  2  1  0
  4  3  1  0
  5  4  1  0
  6  2  1  0
  6  5  1  0
  7  4  1  0
  8  7  1  0
  9  7  1  0
  3 10  1  1
 11  3  1  0
 12 11  1  0
 13  1  1  0
 13 12  1  0
 14 13  1  0
 15 14  1  0
 16 15  1  0
 17 16  1  0
 18 17  1  0
 19 14  1  0
 19 18  1  0
 20 17  1  0
 21 15  1  0
 22  1  1  0
 22 21  1  0
 14 23  1  1
  1 24  1  1
  2 25  1  6
  4 26  1  6
  5 27  1  0
  5 28  1  0
  6 29  1  0
  6 30  1  0
  7 31  1  0
  8 32  1  0
  8 33  1  0
  8 34  1  0
  9 35  1  0
 10 36  1  0
 10 37  1  0
 10 38  1  0
 11 39  1  0
 11 40  1  0
 12 41  1  0
 12 42  1  0
 13 43  1  6
 15 44  1  0
 16 45  1  0
 16 46  1  0
 17 47  1  6
 18 48  1  0
 18 49  1  0
 19 50  1  0
 19 51  1  0
 20 52  1  0
 21 53  1  0
 21 54  1  0
 22 55  1  0
 22 56  1  0
 23 57  1  0
 23 58  1  0
 23 59  1  0
M  END
$$$$
