REMARK INTER + INTRA:          -7.966
REMARK INTER:                  -7.822
REMARK INTRA:                  -0.144
REMARK UNBOUND:                -0.196
REMARK  1 active torsions:
REMARK  status: ('A' for Active; 'I' for Inactive)
REMARK    1  A    between atoms: C7_7  and  C4_4 
ROOT
ATOM      1  C1  LG1 d5015      29.316  10.838  46.632  0.00  0.00    -0.004 C 
ATOM      2  C2  LG1 d5015      30.804  10.808  46.996  0.00  0.00    -0.001 C 
ATOM      3  C3  LG1 d5015      31.148   9.730  48.090  0.00  0.00    -0.030 C 
ATOM      4  C4  LG1 d5015      32.700   9.927  48.133  0.00  0.00     0.063 C 
ATOM      5  C5  LG1 d5015      33.122  10.152  46.639  0.00  0.00     0.013 C 
ATOM      6  C6  LG1 d5015      31.813  10.529  45.855  0.00  0.00     0.006 C 
ATOM      7  C9  LG1 d5015      30.814   8.262  47.644  0.00  0.00     0.016 C 
ATOM      8  C10 LG1 d5015      30.378  10.155  49.360  0.00  0.00     0.011 C 
ATOM      9  C11 LG1 d5015      28.850  10.235  49.090  0.00  0.00     0.007 C 
ATOM     10  C12 LG1 d5015      28.510  11.200  47.924  0.00  0.00     0.002 C 
ATOM     11  C13 LG1 d5015      26.959  11.281  47.675  0.00  0.00    -0.016 C 
ATOM     12  C14 LG1 d5015      26.693  12.265  46.465  0.00  0.00    -0.068 C 
ATOM     13  C15 LG1 d5015      25.783  13.222  46.484  0.00  0.00     0.053 C 
ATOM     14  C16 LG1 d5015      24.853  13.369  47.593  0.00  0.00     0.149 C 
ATOM     15  C17 LG1 d5015      24.848  12.348  48.727  0.00  0.00     0.084 C 
ATOM     16  C18 LG1 d5015      26.289  11.831  48.963  0.00  0.00     0.022 C 
ATOM     17  O2  LG1 d5015      24.009  14.283  47.592  0.00  0.00    -0.293 OA
ATOM     18  C19 LG1 d5015      27.565  12.112  45.223  0.00  0.00     0.035 C 
ATOM     19  C20 LG1 d5015      29.056  11.939  45.573  0.00  0.00     0.010 C 
ATOM     20  C21 LG1 d5015      26.338   9.891  47.261  0.00  0.00     0.020 C 
ENDROOT
BRANCH   4  21
ATOM     21  C7  LG1 d5015      33.473   8.820  48.869  0.00  0.00     0.128 C 
ATOM     22  O1  LG1 d5015      34.034   7.947  48.242  0.00  0.00    -0.298 OA
ATOM     23  C8  LG1 d5015      33.533   8.832  50.357  0.00  0.00     0.091 C 
ENDBRANCH   4  21
TORSDOF 1
ENDMDL
