REMARK INTER + INTRA:          -7.213
REMARK INTER:                  -7.010
REMARK INTRA:                  -0.203
REMARK UNBOUND:                -0.196
REMARK  1 active torsions:
REMARK  status: ('A' for Active; 'I' for Inactive)
REMARK    1  A    between atoms: C7_7  and  C4_4 
ROOT
ATOM      1  C1  LG1 d5015      28.914  11.450  47.033  0.00  0.00    -0.004 C 
ATOM      2  C2  LG1 d5015      27.677  11.552  46.135  0.00  0.00    -0.001 C 
ATOM      3  C3  LG1 d5015      26.381  10.959  46.804  0.00  0.00    -0.030 C 
ATOM      4  C4  LG1 d5015      25.355  11.305  45.675  0.00  0.00     0.063 C 
ATOM      5  C5  LG1 d5015      25.778  12.728  45.165  0.00  0.00     0.013 C 
ATOM      6  C6  LG1 d5015      27.250  12.963  45.662  0.00  0.00     0.006 C 
ATOM      7  C9  LG1 d5015      25.974  11.692  48.131  0.00  0.00     0.016 C 
ATOM      8  C10 LG1 d5015      26.666   9.455  47.018  0.00  0.00     0.011 C 
ATOM      9  C11 LG1 d5015      27.923   9.243  47.907  0.00  0.00     0.007 C 
ATOM     10  C12 LG1 d5015      29.180   9.936  47.320  0.00  0.00     0.002 C 
ATOM     11  C13 LG1 d5015      30.446   9.697  48.224  0.00  0.00    -0.016 C 
ATOM     12  C14 LG1 d5015      31.679  10.446  47.573  0.00  0.00    -0.068 C 
ATOM     13  C15 LG1 d5015      32.867   9.894  47.405  0.00  0.00     0.053 C 
ATOM     14  C16 LG1 d5015      33.175   8.572  47.929  0.00  0.00     0.149 C 
ATOM     15  C17 LG1 d5015      32.148   7.827  48.776  0.00  0.00     0.084 C 
ATOM     16  C18 LG1 d5015      30.722   8.171  48.280  0.00  0.00     0.022 C 
ATOM     17  O2  LG1 d5015      34.300   8.071  47.753  0.00  0.00    -0.293 OA
ATOM     18  C19 LG1 d5015      31.462  11.874  47.084  0.00  0.00     0.035 C 
ATOM     19  C20 LG1 d5015      30.148  12.030  46.295  0.00  0.00     0.010 C 
ATOM     20  C21 LG1 d5015      30.277  10.297  49.672  0.00  0.00     0.020 C 
ENDROOT
BRANCH   4  21
ATOM     21  C7  LG1 d5015      23.878  11.170  46.079  0.00  0.00     0.128 C 
ATOM     22  O1  LG1 d5015      23.407  10.078  46.316  0.00  0.00    -0.298 OA
ATOM     23  C8  LG1 d5015      23.031  12.391  46.186  0.00  0.00     0.091 C 
ENDBRANCH   4  21
TORSDOF 1
ENDMDL
