MODEL 1
REMARK VINA RESULT:    -7.341      0.000      0.000
REMARK INTER + INTRA:          -7.966
REMARK INTER:                  -7.822
REMARK INTRA:                  -0.144
REMARK UNBOUND:                -0.196
REMARK  1 active torsions:
REMARK  status: ('A' for Active; 'I' for Inactive)
REMARK    1  A    between atoms: C7_7  and  C4_4 
ROOT
ATOM      1  C1  LG1 d5015      29.316  10.838  46.632  0.00  0.00    -0.004 C 
ATOM      2  C2  LG1 d5015      30.804  10.808  46.996  0.00  0.00    -0.001 C 
ATOM      3  C3  LG1 d5015      31.148   9.730  48.090  0.00  0.00    -0.030 C 
ATOM      4  C4  LG1 d5015      32.700   9.927  48.133  0.00  0.00     0.063 C 
ATOM      5  C5  LG1 d5015      33.122  10.152  46.639  0.00  0.00     0.013 C 
ATOM      6  C6  LG1 d5015      31.813  10.529  45.855  0.00  0.00     0.006 C 
ATOM      7  C9  LG1 d5015      30.814   8.262  47.644  0.00  0.00     0.016 C 
ATOM      8  C10 LG1 d5015      30.378  10.155  49.360  0.00  0.00     0.011 C 
ATOM      9  C11 LG1 d5015      28.850  10.235  49.090  0.00  0.00     0.007 C 
ATOM     10  C12 LG1 d5015      28.510  11.200  47.924  0.00  0.00     0.002 C 
ATOM     11  C13 LG1 d5015      26.959  11.281  47.675  0.00  0.00    -0.016 C 
ATOM     12  C14 LG1 d5015      26.693  12.265  46.465  0.00  0.00    -0.068 C 
ATOM     13  C15 LG1 d5015      25.783  13.222  46.484  0.00  0.00     0.053 C 
ATOM     14  C16 LG1 d5015      24.853  13.369  47.593  0.00  0.00     0.149 C 
ATOM     15  C17 LG1 d5015      24.848  12.348  48.727  0.00  0.00     0.084 C 
ATOM     16  C18 LG1 d5015      26.289  11.831  48.963  0.00  0.00     0.022 C 
ATOM     17  O2  LG1 d5015      24.009  14.283  47.592  0.00  0.00    -0.293 OA
ATOM     18  C19 LG1 d5015      27.565  12.112  45.223  0.00  0.00     0.035 C 
ATOM     19  C20 LG1 d5015      29.056  11.939  45.573  0.00  0.00     0.010 C 
ATOM     20  C21 LG1 d5015      26.338   9.891  47.261  0.00  0.00     0.020 C 
ENDROOT
BRANCH   4  21
ATOM     21  C7  LG1 d5015      33.473   8.820  48.869  0.00  0.00     0.128 C 
ATOM     22  O1  LG1 d5015      34.034   7.947  48.242  0.00  0.00    -0.298 OA
ATOM     23  C8  LG1 d5015      33.533   8.832  50.357  0.00  0.00     0.091 C 
ENDBRANCH   4  21
TORSDOF 1
ENDMDL
MODEL 2
REMARK VINA RESULT:    -7.018      1.720      7.174
REMARK INTER + INTRA:          -7.624
REMARK INTER:                  -7.469
REMARK INTRA:                  -0.155
REMARK UNBOUND:                -0.196
REMARK  1 active torsions:
REMARK  status: ('A' for Active; 'I' for Inactive)
REMARK    1  A    between atoms: C7_7  and  C4_4 
ROOT
ATOM      1  C1  LG1 d5015      27.622   9.907  47.145  0.00  0.00    -0.004 C 
ATOM      2  C2  LG1 d5015      26.120  10.209  47.150  0.00  0.00    -0.001 C 
ATOM      3  C3  LG1 d5015      25.797  11.716  47.472  0.00  0.00    -0.030 C 
ATOM      4  C4  LG1 d5015      24.242  11.662  47.308  0.00  0.00     0.063 C 
ATOM      5  C5  LG1 d5015      23.996  10.723  46.076  0.00  0.00     0.013 C 
ATOM      6  C6  LG1 d5015      25.327   9.918  45.853  0.00  0.00     0.006 C 
ATOM      7  C9  LG1 d5015      26.404  12.720  46.429  0.00  0.00     0.016 C 
ATOM      8  C10 LG1 d5015      26.316  11.963  48.906  0.00  0.00     0.011 C 
ATOM      9  C11 LG1 d5015      27.838  11.664  49.012  0.00  0.00     0.007 C 
ATOM     10  C12 LG1 d5015      28.183  10.217  48.572  0.00  0.00     0.002 C 
ATOM     11  C13 LG1 d5015      29.724   9.927  48.701  0.00  0.00    -0.016 C 
ATOM     12  C14 LG1 d5015      30.000   8.445  48.218  0.00  0.00    -0.068 C 
ATOM     13  C15 LG1 d5015      30.745   7.583  48.887  0.00  0.00     0.053 C 
ATOM     14  C16 LG1 d5015      31.484   7.976  50.077  0.00  0.00     0.149 C 
ATOM     15  C17 LG1 d5015      31.490   9.433  50.528  0.00  0.00     0.084 C 
ATOM     16  C18 LG1 d5015      30.124  10.083  50.192  0.00  0.00     0.022 C 
ATOM     17  O2  LG1 d5015      32.174   7.144  50.693  0.00  0.00    -0.293 OA
ATOM     18  C19 LG1 d5015      29.336   7.987  46.924  0.00  0.00     0.035 C 
ATOM     19  C20 LG1 d5015      27.855   8.404  46.847  0.00  0.00     0.010 C 
ATOM     20  C21 LG1 d5015      30.596  10.863  47.778  0.00  0.00     0.020 C 
ENDROOT
BRANCH   4  21
ATOM     21  C7  LG1 d5015      23.552  13.034  47.231  0.00  0.00     0.128 C 
ATOM     22  O1  LG1 d5015      23.709  13.848  48.116  0.00  0.00    -0.298 OA
ATOM     23  C8  LG1 d5015      22.695  13.359  46.056  0.00  0.00     0.091 C 
ENDBRANCH   4  21
TORSDOF 1
ENDMDL
MODEL 3
REMARK VINA RESULT:    -6.755      3.067      4.261
REMARK INTER + INTRA:          -7.346
REMARK INTER:                  -7.170
REMARK INTRA:                  -0.176
REMARK UNBOUND:                -0.196
REMARK  1 active torsions:
REMARK  status: ('A' for Active; 'I' for Inactive)
REMARK    1  A    between atoms: C7_7  and  C4_4 
ROOT
ATOM      1  C1  LG1 d5015      30.287   9.672  47.818  0.00  0.00    -0.004 C 
ATOM      2  C2  LG1 d5015      29.977   8.919  49.116  0.00  0.00    -0.001 C 
ATOM      3  C3  LG1 d5015      29.537   7.428  48.872  0.00  0.00    -0.030 C 
ATOM      4  C4  LG1 d5015      29.397   6.977  50.364  0.00  0.00     0.063 C 
ATOM      5  C5  LG1 d5015      30.596   7.663  51.109  0.00  0.00     0.013 C 
ATOM      6  C6  LG1 d5015      31.106   8.816  50.170  0.00  0.00     0.006 C 
ATOM      7  C9  LG1 d5015      30.636   6.562  48.160  0.00  0.00     0.016 C 
ATOM      8  C10 LG1 d5015      28.223   7.501  48.064  0.00  0.00     0.011 C 
ATOM      9  C11 LG1 d5015      28.427   8.268  46.728  0.00  0.00     0.007 C 
ATOM     10  C12 LG1 d5015      28.985   9.698  46.952  0.00  0.00     0.002 C 
ATOM     11  C13 LG1 d5015      29.170  10.465  45.590  0.00  0.00    -0.016 C 
ATOM     12  C14 LG1 d5015      29.757  11.902  45.898  0.00  0.00    -0.068 C 
ATOM     13  C15 LG1 d5015      29.283  13.016  45.370  0.00  0.00     0.053 C 
ATOM     14  C16 LG1 d5015      28.244  12.996  44.352  0.00  0.00     0.149 C 
ATOM     15  C17 LG1 d5015      27.744  11.666  43.796  0.00  0.00     0.084 C 
ATOM     16  C18 LG1 d5015      27.780  10.594  44.912  0.00  0.00     0.022 C 
ATOM     17  O2  LG1 d5015      27.809  14.059  43.875  0.00  0.00    -0.293 OA
ATOM     18  C19 LG1 d5015      30.915  11.997  46.885  0.00  0.00     0.035 C 
ATOM     19  C20 LG1 d5015      30.686  11.134  48.141  0.00  0.00     0.010 C 
ATOM     20  C21 LG1 d5015      30.206   9.758  44.634  0.00  0.00     0.020 C 
ENDROOT
BRANCH   4  21
ATOM     21  C7  LG1 d5015      29.283   5.458  50.574  0.00  0.00     0.128 C 
ATOM     22  O1  LG1 d5015      28.382   4.837  50.052  0.00  0.00    -0.298 OA
ATOM     23  C8  LG1 d5015      30.291   4.756  51.416  0.00  0.00     0.091 C 
ENDBRANCH   4  21
TORSDOF 1
ENDMDL
MODEL 4
REMARK VINA RESULT:    -6.630      1.603      6.945
REMARK INTER + INTRA:          -7.213
REMARK INTER:                  -7.010
REMARK INTRA:                  -0.203
REMARK UNBOUND:                -0.196
REMARK  1 active torsions:
REMARK  status: ('A' for Active; 'I' for Inactive)
REMARK    1  A    between atoms: C7_7  and  C4_4 
ROOT
ATOM      1  C1  LG1 d5015      28.914  11.450  47.033  0.00  0.00    -0.004 C 
ATOM      2  C2  LG1 d5015      27.677  11.552  46.135  0.00  0.00    -0.001 C 
ATOM      3  C3  LG1 d5015      26.381  10.959  46.804  0.00  0.00    -0.030 C 
ATOM      4  C4  LG1 d5015      25.355  11.305  45.675  0.00  0.00     0.063 C 
ATOM      5  C5  LG1 d5015      25.778  12.728  45.165  0.00  0.00     0.013 C 
ATOM      6  C6  LG1 d5015      27.250  12.963  45.662  0.00  0.00     0.006 C 
ATOM      7  C9  LG1 d5015      25.974  11.692  48.131  0.00  0.00     0.016 C 
ATOM      8  C10 LG1 d5015      26.666   9.455  47.018  0.00  0.00     0.011 C 
ATOM      9  C11 LG1 d5015      27.923   9.243  47.907  0.00  0.00     0.007 C 
ATOM     10  C12 LG1 d5015      29.180   9.936  47.320  0.00  0.00     0.002 C 
ATOM     11  C13 LG1 d5015      30.446   9.697  48.224  0.00  0.00    -0.016 C 
ATOM     12  C14 LG1 d5015      31.679  10.446  47.573  0.00  0.00    -0.068 C 
ATOM     13  C15 LG1 d5015      32.867   9.894  47.405  0.00  0.00     0.053 C 
ATOM     14  C16 LG1 d5015      33.175   8.572  47.929  0.00  0.00     0.149 C 
ATOM     15  C17 LG1 d5015      32.148   7.827  48.776  0.00  0.00     0.084 C 
ATOM     16  C18 LG1 d5015      30.722   8.171  48.280  0.00  0.00     0.022 C 
ATOM     17  O2  LG1 d5015      34.300   8.071  47.753  0.00  0.00    -0.293 OA
ATOM     18  C19 LG1 d5015      31.462  11.874  47.084  0.00  0.00     0.035 C 
ATOM     19  C20 LG1 d5015      30.148  12.030  46.295  0.00  0.00     0.010 C 
ATOM     20  C21 LG1 d5015      30.277  10.297  49.672  0.00  0.00     0.020 C 
ENDROOT
BRANCH   4  21
ATOM     21  C7  LG1 d5015      23.878  11.170  46.079  0.00  0.00     0.128 C 
ATOM     22  O1  LG1 d5015      23.407  10.078  46.316  0.00  0.00    -0.298 OA
ATOM     23  C8  LG1 d5015      23.031  12.391  46.186  0.00  0.00     0.091 C 
ENDBRANCH   4  21
TORSDOF 1
ENDMDL
MODEL 5
REMARK VINA RESULT:    -6.543      2.781      6.983
REMARK INTER + INTRA:          -7.121
REMARK INTER:                  -6.925
REMARK INTRA:                  -0.196
REMARK UNBOUND:                -0.196
REMARK  1 active torsions:
REMARK  status: ('A' for Active; 'I' for Inactive)
REMARK    1  A    between atoms: C7_7  and  C4_4 
ROOT
ATOM      1  C1  LG1 d5015      28.249   8.068  47.107  0.00  0.00    -0.004 C 
ATOM      2  C2  LG1 d5015      27.151   9.061  46.714  0.00  0.00    -0.001 C 
ATOM      3  C3  LG1 d5015      27.649  10.555  46.705  0.00  0.00    -0.030 C 
ATOM      4  C4  LG1 d5015      26.335  11.236  46.194  0.00  0.00     0.063 C 
ATOM      5  C5  LG1 d5015      25.767  10.258  45.106  0.00  0.00     0.013 C 
ATOM      6  C6  LG1 d5015      26.479   8.875  45.332  0.00  0.00     0.006 C 
ATOM      7  C9  LG1 d5015      28.811  10.818  45.684  0.00  0.00     0.016 C 
ATOM      8  C10 LG1 d5015      28.052  10.875  48.161  0.00  0.00     0.011 C 
ATOM      9  C11 LG1 d5015      29.155   9.903  48.665  0.00  0.00     0.007 C 
ATOM     10  C12 LG1 d5015      28.722   8.418  48.556  0.00  0.00     0.002 C 
ATOM     11  C13 LG1 d5015      29.844   7.450  49.085  0.00  0.00    -0.016 C 
ATOM     12  C14 LG1 d5015      29.339   5.958  48.926  0.00  0.00    -0.068 C 
ATOM     13  C15 LG1 d5015      29.427   5.048  49.879  0.00  0.00     0.053 C 
ATOM     14  C16 LG1 d5015      30.120   5.318  51.129  0.00  0.00     0.149 C 
ATOM     15  C17 LG1 d5015      30.852   6.642  51.328  0.00  0.00     0.084 C 
ATOM     16  C18 LG1 d5015      30.093   7.768  50.584  0.00  0.00     0.022 C 
ATOM     17  O2  LG1 d5015      30.184   4.446  52.015  0.00  0.00    -0.293 OA
ATOM     18  C19 LG1 d5015      28.685   5.570  47.604  0.00  0.00     0.035 C 
ATOM     19  C20 LG1 d5015      27.675   6.628  47.118  0.00  0.00     0.010 C 
ATOM     20  C21 LG1 d5015      31.179   7.557  48.253  0.00  0.00     0.020 C 
ENDROOT
BRANCH   4  21
ATOM     21  C7  LG1 d5015      26.498  12.695  45.738  0.00  0.00     0.128 C 
ATOM     22  O1  LG1 d5015      26.698  13.571  46.553  0.00  0.00    -0.298 OA
ATOM     23  C8  LG1 d5015      26.417  13.024  44.288  0.00  0.00     0.091 C 
ENDBRANCH   4  21
TORSDOF 1
ENDMDL
