REMARK INTER + INTRA:          -7.346
REMARK INTER:                  -7.170
REMARK INTRA:                  -0.176
REMARK UNBOUND:                -0.196
REMARK  1 active torsions:
REMARK  status: ('A' for Active; 'I' for Inactive)
REMARK    1  A    between atoms: C7_7  and  C4_4 
ROOT
ATOM      1  C1  LG1 d5015      30.287   9.672  47.818  0.00  0.00    -0.004 C 
ATOM      2  C2  LG1 d5015      29.977   8.919  49.116  0.00  0.00    -0.001 C 
ATOM      3  C3  LG1 d5015      29.537   7.428  48.872  0.00  0.00    -0.030 C 
ATOM      4  C4  LG1 d5015      29.397   6.977  50.364  0.00  0.00     0.063 C 
ATOM      5  C5  LG1 d5015      30.596   7.663  51.109  0.00  0.00     0.013 C 
ATOM      6  C6  LG1 d5015      31.106   8.816  50.170  0.00  0.00     0.006 C 
ATOM      7  C9  LG1 d5015      30.636   6.562  48.160  0.00  0.00     0.016 C 
ATOM      8  C10 LG1 d5015      28.223   7.501  48.064  0.00  0.00     0.011 C 
ATOM      9  C11 LG1 d5015      28.427   8.268  46.728  0.00  0.00     0.007 C 
ATOM     10  C12 LG1 d5015      28.985   9.698  46.952  0.00  0.00     0.002 C 
ATOM     11  C13 LG1 d5015      29.170  10.465  45.590  0.00  0.00    -0.016 C 
ATOM     12  C14 LG1 d5015      29.757  11.902  45.898  0.00  0.00    -0.068 C 
ATOM     13  C15 LG1 d5015      29.283  13.016  45.370  0.00  0.00     0.053 C 
ATOM     14  C16 LG1 d5015      28.244  12.996  44.352  0.00  0.00     0.149 C 
ATOM     15  C17 LG1 d5015      27.744  11.666  43.796  0.00  0.00     0.084 C 
ATOM     16  C18 LG1 d5015      27.780  10.594  44.912  0.00  0.00     0.022 C 
ATOM     17  O2  LG1 d5015      27.809  14.059  43.875  0.00  0.00    -0.293 OA
ATOM     18  C19 LG1 d5015      30.915  11.997  46.885  0.00  0.00     0.035 C 
ATOM     19  C20 LG1 d5015      30.686  11.134  48.141  0.00  0.00     0.010 C 
ATOM     20  C21 LG1 d5015      30.206   9.758  44.634  0.00  0.00     0.020 C 
ENDROOT
BRANCH   4  21
ATOM     21  C7  LG1 d5015      29.283   5.458  50.574  0.00  0.00     0.128 C 
ATOM     22  O1  LG1 d5015      28.382   4.837  50.052  0.00  0.00    -0.298 OA
ATOM     23  C8  LG1 d5015      30.291   4.756  51.416  0.00  0.00     0.091 C 
ENDBRANCH   4  21
TORSDOF 1
ENDMDL
