REMARK INTER + INTRA:          -7.071
REMARK INTER:                  -6.869
REMARK INTRA:                  -0.202
REMARK UNBOUND:                -0.202
REMARK  1 active torsions:
REMARK  status: ('A' for Active; 'I' for Inactive)
REMARK    1  A    between atoms: C7_7  and  C4_4 
ROOT
ATOM      1  C1  LG1 d5015      28.174   8.205  47.059  0.00  0.00    -0.004 C 
ATOM      2  C2  LG1 d5015      27.043   9.171  46.690  0.00  0.00    -0.001 C 
ATOM      3  C3  LG1 d5015      27.483  10.681  46.740  0.00  0.00    -0.030 C 
ATOM      4  C4  LG1 d5015      26.150  11.330  46.239  0.00  0.00     0.063 C 
ATOM      5  C5  LG1 d5015      25.631  10.372  45.111  0.00  0.00     0.013 C 
ATOM      6  C6  LG1 d5015      26.391   9.009  45.295  0.00  0.00     0.006 C 
ATOM      7  C9  LG1 d5015      28.645  11.024  45.742  0.00  0.00     0.016 C 
ATOM      8  C10 LG1 d5015      27.860  10.964  48.211  0.00  0.00     0.011 C 
ATOM      9  C11 LG1 d5015      28.994  10.016  48.692  0.00  0.00     0.007 C 
ATOM     10  C12 LG1 d5015      28.619   8.521  48.526  0.00  0.00     0.002 C 
ATOM     11  C13 LG1 d5015      29.771   7.577  49.032  0.00  0.00    -0.016 C 
ATOM     12  C14 LG1 d5015      29.325   6.074  48.814  0.00  0.00    -0.068 C 
ATOM     13  C15 LG1 d5015      29.438   5.134  49.735  0.00  0.00     0.053 C 
ATOM     14  C16 LG1 d5015      30.109   5.384  51.002  0.00  0.00     0.149 C 
ATOM     15  C17 LG1 d5015      30.788   6.726  51.256  0.00  0.00     0.084 C 
ATOM     16  C18 LG1 d5015      29.993   7.850  50.544  0.00  0.00     0.022 C 
ATOM     17  O2  LG1 d5015      30.197   4.484  51.856  0.00  0.00    -0.293 OA
ATOM     18  C19 LG1 d5015      28.699   5.710  47.472  0.00  0.00     0.035 C 
ATOM     19  C20 LG1 d5015      27.655   6.745  47.012  0.00  0.00     0.010 C 
ATOM     20  C21 LG1 d5015      31.109   7.764  48.219  0.00  0.00     0.020 C 
ENDROOT
BRANCH   4  21
ATOM     21  C7  LG1 d5015      26.262  12.810  45.837  0.00  0.00     0.128 C 
ATOM     22  O1  LG1 d5015      26.472  13.657  46.679  0.00  0.00    -0.298 OA
ATOM     23  C8  LG1 d5015      26.120  13.194  44.406  0.00  0.00     0.091 C 
ENDBRANCH   4  21
TORSDOF 1
ENDMDL
