MODEL 1
REMARK VINA RESULT:    -7.410      0.000      0.000
REMARK INTER + INTRA:          -7.982
REMARK INTER:                  -7.836
REMARK INTRA:                  -0.146
REMARK UNBOUND:                -0.138
REMARK  1 active torsions:
REMARK  status: ('A' for Active; 'I' for Inactive)
REMARK    1  A    between atoms: C7_7  and  C4_4 
ROOT
ATOM      1  C1  LG1 d5015      29.321  10.826  46.651  0.00  0.00    -0.004 C 
ATOM      2  C2  LG1 d5015      30.809  10.794  47.018  0.00  0.00    -0.001 C 
ATOM      3  C3  LG1 d5015      31.148   9.718  48.116  0.00  0.00    -0.030 C 
ATOM      4  C4  LG1 d5015      32.700   9.912  48.162  0.00  0.00     0.063 C 
ATOM      5  C5  LG1 d5015      33.126  10.133  46.668  0.00  0.00     0.013 C 
ATOM      6  C6  LG1 d5015      31.820  10.510  45.880  0.00  0.00     0.006 C 
ATOM      7  C9  LG1 d5015      30.812   8.250  47.674  0.00  0.00     0.016 C 
ATOM      8  C10 LG1 d5015      30.376  10.148  49.383  0.00  0.00     0.011 C 
ATOM      9  C11 LG1 d5015      28.849  10.231  49.109  0.00  0.00     0.007 C 
ATOM     10  C12 LG1 d5015      28.514  11.193  47.940  0.00  0.00     0.002 C 
ATOM     11  C13 LG1 d5015      26.963  11.277  47.688  0.00  0.00    -0.016 C 
ATOM     12  C14 LG1 d5015      26.702  12.258  46.474  0.00  0.00    -0.068 C 
ATOM     13  C15 LG1 d5015      25.794  13.217  46.488  0.00  0.00     0.053 C 
ATOM     14  C16 LG1 d5015      24.862  13.369  47.595  0.00  0.00     0.149 C 
ATOM     15  C17 LG1 d5015      24.852  12.351  48.732  0.00  0.00     0.084 C 
ATOM     16  C18 LG1 d5015      26.291  11.831  48.972  0.00  0.00     0.022 C 
ATOM     17  O2  LG1 d5015      24.020  14.285  47.589  0.00  0.00    -0.293 OA
ATOM     18  C19 LG1 d5015      27.576  12.100  45.235  0.00  0.00     0.035 C 
ATOM     19  C20 LG1 d5015      29.066  11.924  45.588  0.00  0.00     0.010 C 
ATOM     20  C21 LG1 d5015      26.340   9.887  47.276  0.00  0.00     0.020 C 
ENDROOT
BRANCH   4  21
ATOM     21  C7  LG1 d5015      33.469   8.806  48.903  0.00  0.00     0.128 C 
ATOM     22  O1  LG1 d5015      34.069   7.957  48.279  0.00  0.00    -0.298 OA
ATOM     23  C8  LG1 d5015      33.477   8.790  50.392  0.00  0.00     0.091 C 
ENDBRANCH   4  21
TORSDOF 1
ENDMDL
MODEL 2
REMARK VINA RESULT:    -7.061      1.700      7.177
REMARK INTER + INTRA:          -7.611
REMARK INTER:                  -7.440
REMARK INTRA:                  -0.171
REMARK UNBOUND:                -0.138
REMARK  1 active torsions:
REMARK  status: ('A' for Active; 'I' for Inactive)
REMARK    1  A    between atoms: C7_7  and  C4_4 
ROOT
ATOM      1  C1  LG1 d5015      27.611   9.912  47.117  0.00  0.00    -0.004 C 
ATOM      2  C2  LG1 d5015      26.107  10.207  47.135  0.00  0.00    -0.001 C 
ATOM      3  C3  LG1 d5015      25.780  11.710  47.468  0.00  0.00    -0.030 C 
ATOM      4  C4  LG1 d5015      24.224  11.650  47.315  0.00  0.00     0.063 C 
ATOM      5  C5  LG1 d5015      23.973  10.717  46.079  0.00  0.00     0.013 C 
ATOM      6  C6  LG1 d5015      25.306   9.919  45.842  0.00  0.00     0.006 C 
ATOM      7  C9  LG1 d5015      26.374  12.722  46.426  0.00  0.00     0.016 C 
ATOM      8  C10 LG1 d5015      26.308  11.951  48.899  0.00  0.00     0.011 C 
ATOM      9  C11 LG1 d5015      27.832  11.658  48.992  0.00  0.00     0.007 C 
ATOM     10  C12 LG1 d5015      28.180  10.216  48.542  0.00  0.00     0.002 C 
ATOM     11  C13 LG1 d5015      29.724   9.932  48.657  0.00  0.00    -0.016 C 
ATOM     12  C14 LG1 d5015      30.003   8.454  48.165  0.00  0.00    -0.068 C 
ATOM     13  C15 LG1 d5015      30.757   7.592  48.822  0.00  0.00     0.053 C 
ATOM     14  C16 LG1 d5015      31.503   7.981  50.009  0.00  0.00     0.149 C 
ATOM     15  C17 LG1 d5015      31.505   9.436  50.468  0.00  0.00     0.084 C 
ATOM     16  C18 LG1 d5015      30.134  10.081  50.147  0.00  0.00     0.022 C 
ATOM     17  O2  LG1 d5015      32.201   7.149  50.615  0.00  0.00    -0.293 OA
ATOM     18  C19 LG1 d5015      29.332   8.000  46.873  0.00  0.00     0.035 C 
ATOM     19  C20 LG1 d5015      27.848   8.411  46.808  0.00  0.00     0.010 C 
ATOM     20  C21 LG1 d5015      30.584  10.877  47.734  0.00  0.00     0.020 C 
ENDROOT
BRANCH   4  21
ATOM     21  C7  LG1 d5015      23.527  13.019  47.250  0.00  0.00     0.128 C 
ATOM     22  O1  LG1 d5015      23.655  13.813  48.158  0.00  0.00    -0.298 OA
ATOM     23  C8  LG1 d5015      22.700  13.366  46.060  0.00  0.00     0.091 C 
ENDBRANCH   4  21
TORSDOF 1
ENDMDL
MODEL 3
REMARK VINA RESULT:    -6.776      3.046      4.179
REMARK INTER + INTRA:          -7.310
REMARK INTER:                  -7.124
REMARK INTRA:                  -0.185
REMARK UNBOUND:                -0.138
REMARK  1 active torsions:
REMARK  status: ('A' for Active; 'I' for Inactive)
REMARK    1  A    between atoms: C7_7  and  C4_4 
ROOT
ATOM      1  C1  LG1 d5015      30.220   9.773  47.751  0.00  0.00    -0.004 C 
ATOM      2  C2  LG1 d5015      29.934   9.028  49.059  0.00  0.00    -0.001 C 
ATOM      3  C3  LG1 d5015      29.505   7.531  48.831  0.00  0.00    -0.030 C 
ATOM      4  C4  LG1 d5015      29.389   7.090  50.329  0.00  0.00     0.063 C 
ATOM      5  C5  LG1 d5015      30.591   7.793  51.053  0.00  0.00     0.013 C 
ATOM      6  C6  LG1 d5015      31.078   8.943  50.099  0.00  0.00     0.006 C 
ATOM      7  C9  LG1 d5015      30.603   6.670  48.112  0.00  0.00     0.016 C 
ATOM      8  C10 LG1 d5015      28.179   7.586  48.040  0.00  0.00     0.011 C 
ATOM      9  C11 LG1 d5015      28.359   8.345  46.696  0.00  0.00     0.007 C 
ATOM     10  C12 LG1 d5015      28.906   9.781  46.902  0.00  0.00     0.002 C 
ATOM     11  C13 LG1 d5015      29.066  10.540  45.533  0.00  0.00    -0.016 C 
ATOM     12  C14 LG1 d5015      29.644  11.985  45.822  0.00  0.00    -0.068 C 
ATOM     13  C15 LG1 d5015      29.152  13.090  45.292  0.00  0.00     0.053 C 
ATOM     14  C16 LG1 d5015      28.100  13.053  44.288  0.00  0.00     0.149 C 
ATOM     15  C17 LG1 d5015      27.605  11.714  43.748  0.00  0.00     0.084 C 
ATOM     16  C18 LG1 d5015      27.666  10.650  44.872  0.00  0.00     0.022 C 
ATOM     17  O2  LG1 d5015      27.648  14.108  43.809  0.00  0.00    -0.293 OA
ATOM     18  C19 LG1 d5015      30.814  12.098  46.793  0.00  0.00     0.035 C 
ATOM     19  C20 LG1 d5015      30.609  11.242  48.058  0.00  0.00     0.010 C 
ATOM     20  C21 LG1 d5015      30.096   9.836  44.568  0.00  0.00     0.020 C 
ENDROOT
BRANCH   4  21
ATOM     21  C7  LG1 d5015      29.292   5.572  50.551  0.00  0.00     0.128 C 
ATOM     22  O1  LG1 d5015      28.377   4.942  50.066  0.00  0.00    -0.298 OA
ATOM     23  C8  LG1 d5015      30.335   4.881  51.360  0.00  0.00     0.091 C 
ENDBRANCH   4  21
TORSDOF 1
ENDMDL
MODEL 4
REMARK VINA RESULT:    -6.664      1.565      6.942
REMARK INTER + INTRA:          -7.192
REMARK INTER:                  -6.987
REMARK INTRA:                  -0.205
REMARK UNBOUND:                -0.138
REMARK  1 active torsions:
REMARK  status: ('A' for Active; 'I' for Inactive)
REMARK    1  A    between atoms: C7_7  and  C4_4 
ROOT
ATOM      1  C1  LG1 d5015      29.025  11.408  47.060  0.00  0.00    -0.004 C 
ATOM      2  C2  LG1 d5015      27.778  11.521  46.177  0.00  0.00    -0.001 C 
ATOM      3  C3  LG1 d5015      26.481  10.961  46.871  0.00  0.00    -0.030 C 
ATOM      4  C4  LG1 d5015      25.446  11.311  45.751  0.00  0.00     0.063 C 
ATOM      5  C5  LG1 d5015      25.888  12.719  45.216  0.00  0.00     0.013 C 
ATOM      6  C6  LG1 d5015      27.371  12.933  45.690  0.00  0.00     0.006 C 
ATOM      7  C9  LG1 d5015      26.105  11.719  48.193  0.00  0.00     0.016 C 
ATOM      8  C10 LG1 d5015      26.741   9.455  47.102  0.00  0.00     0.011 C 
ATOM      9  C11 LG1 d5015      28.005   9.232  47.977  0.00  0.00     0.007 C 
ATOM     10  C12 LG1 d5015      29.267   9.893  47.364  0.00  0.00     0.002 C 
ATOM     11  C13 LG1 d5015      30.540   9.643  48.255  0.00  0.00    -0.016 C 
ATOM     12  C14 LG1 d5015      31.778  10.360  47.577  0.00  0.00    -0.068 C 
ATOM     13  C15 LG1 d5015      32.953   9.783  47.402  0.00  0.00     0.053 C 
ATOM     14  C16 LG1 d5015      33.244   8.463  47.940  0.00  0.00     0.149 C 
ATOM     15  C17 LG1 d5015      32.214   7.749  48.810  0.00  0.00     0.084 C 
ATOM     16  C18 LG1 d5015      30.788   8.112  48.328  0.00  0.00     0.022 C 
ATOM     17  O2  LG1 d5015      34.356   7.938  47.756  0.00  0.00    -0.293 OA
ATOM     18  C19 LG1 d5015      31.581  11.785  47.072  0.00  0.00     0.035 C 
ATOM     19  C20 LG1 d5015      30.259  11.954  46.298  0.00  0.00     0.010 C 
ATOM     20  C21 LG1 d5015      30.402  10.265  49.697  0.00  0.00     0.020 C 
ENDROOT
BRANCH   4  21
ATOM     21  C7  LG1 d5015      23.972  11.209  46.176  0.00  0.00     0.128 C 
ATOM     22  O1  LG1 d5015      23.487  10.130  46.442  0.00  0.00    -0.298 OA
ATOM     23  C8  LG1 d5015      23.148  12.447  46.269  0.00  0.00     0.091 C 
ENDBRANCH   4  21
TORSDOF 1
ENDMDL
MODEL 5
REMARK VINA RESULT:    -6.429      2.524      7.290
REMARK INTER + INTRA:          -6.943
REMARK INTER:                  -6.805
REMARK INTRA:                  -0.138
REMARK UNBOUND:                -0.138
REMARK  1 active torsions:
REMARK  status: ('A' for Active; 'I' for Inactive)
REMARK    1  A    between atoms: C7_7  and  C4_4 
ROOT
ATOM      1  C1  LG1 d5015      31.274   9.134  48.604  0.00  0.00    -0.004 C 
ATOM      2  C2  LG1 d5015      30.624   9.921  47.461  0.00  0.00    -0.001 C 
ATOM      3  C3  LG1 d5015      29.078  10.135  47.666  0.00  0.00    -0.030 C 
ATOM      4  C4  LG1 d5015      28.794  11.013  46.401  0.00  0.00     0.063 C 
ATOM      5  C5  LG1 d5015      30.032  11.970  46.286  0.00  0.00     0.013 C 
ATOM      6  C6  LG1 d5015      31.170  11.340  47.168  0.00  0.00     0.006 C 
ATOM      7  C9  LG1 d5015      28.727  10.947  48.962  0.00  0.00     0.016 C 
ATOM      8  C10 LG1 d5015      28.451   8.723  47.660  0.00  0.00     0.011 C 
ATOM      9  C11 LG1 d5015      29.062   7.833  48.778  0.00  0.00     0.007 C 
ATOM     10  C12 LG1 d5015      30.604   7.722  48.661  0.00  0.00     0.002 C 
ATOM     11  C13 LG1 d5015      31.204   6.805  49.791  0.00  0.00    -0.016 C 
ATOM     12  C14 LG1 d5015      32.776   6.755  49.617  0.00  0.00    -0.068 C 
ATOM     13  C15 LG1 d5015      33.483   5.639  49.651  0.00  0.00     0.053 C 
ATOM     14  C16 LG1 d5015      32.873   4.360  49.979  0.00  0.00     0.149 C 
ATOM     15  C17 LG1 d5015      31.405   4.295  50.391  0.00  0.00     0.084 C 
ATOM     16  C18 LG1 d5015      30.607   5.381  49.628  0.00  0.00     0.022 C 
ATOM     17  O2  LG1 d5015      33.558   3.322  49.998  0.00  0.00    -0.293 OA
ATOM     18  C19 LG1 d5015      33.503   8.071  49.365  0.00  0.00     0.035 C 
ATOM     19  C20 LG1 d5015      32.786   8.944  48.317  0.00  0.00     0.010 C 
ATOM     20  C21 LG1 d5015      30.935   7.372  51.237  0.00  0.00     0.020 C 
ENDROOT
BRANCH   4  21
ATOM     21  C7  LG1 d5015      27.425  11.714  46.394  0.00  0.00     0.128 C 
ATOM     22  O1  LG1 d5015      27.357  12.920  46.492  0.00  0.00    -0.298 OA
ATOM     23  C8  LG1 d5015      26.186  10.899  46.257  0.00  0.00     0.091 C 
ENDBRANCH   4  21
TORSDOF 1
ENDMDL
