REMARK INTER + INTRA:          -7.611
REMARK INTER:                  -7.440
REMARK INTRA:                  -0.171
REMARK UNBOUND:                -0.138
REMARK  1 active torsions:
REMARK  status: ('A' for Active; 'I' for Inactive)
REMARK    1  A    between atoms: C7_7  and  C4_4 
ROOT
ATOM      1  C1  LG1 d5015      27.611   9.912  47.117  0.00  0.00    -0.004 C 
ATOM      2  C2  LG1 d5015      26.107  10.207  47.135  0.00  0.00    -0.001 C 
ATOM      3  C3  LG1 d5015      25.780  11.710  47.468  0.00  0.00    -0.030 C 
ATOM      4  C4  LG1 d5015      24.224  11.650  47.315  0.00  0.00     0.063 C 
ATOM      5  C5  LG1 d5015      23.973  10.717  46.079  0.00  0.00     0.013 C 
ATOM      6  C6  LG1 d5015      25.306   9.919  45.842  0.00  0.00     0.006 C 
ATOM      7  C9  LG1 d5015      26.374  12.722  46.426  0.00  0.00     0.016 C 
ATOM      8  C10 LG1 d5015      26.308  11.951  48.899  0.00  0.00     0.011 C 
ATOM      9  C11 LG1 d5015      27.832  11.658  48.992  0.00  0.00     0.007 C 
ATOM     10  C12 LG1 d5015      28.180  10.216  48.542  0.00  0.00     0.002 C 
ATOM     11  C13 LG1 d5015      29.724   9.932  48.657  0.00  0.00    -0.016 C 
ATOM     12  C14 LG1 d5015      30.003   8.454  48.165  0.00  0.00    -0.068 C 
ATOM     13  C15 LG1 d5015      30.757   7.592  48.822  0.00  0.00     0.053 C 
ATOM     14  C16 LG1 d5015      31.503   7.981  50.009  0.00  0.00     0.149 C 
ATOM     15  C17 LG1 d5015      31.505   9.436  50.468  0.00  0.00     0.084 C 
ATOM     16  C18 LG1 d5015      30.134  10.081  50.147  0.00  0.00     0.022 C 
ATOM     17  O2  LG1 d5015      32.201   7.149  50.615  0.00  0.00    -0.293 OA
ATOM     18  C19 LG1 d5015      29.332   8.000  46.873  0.00  0.00     0.035 C 
ATOM     19  C20 LG1 d5015      27.848   8.411  46.808  0.00  0.00     0.010 C 
ATOM     20  C21 LG1 d5015      30.584  10.877  47.734  0.00  0.00     0.020 C 
ENDROOT
BRANCH   4  21
ATOM     21  C7  LG1 d5015      23.527  13.019  47.250  0.00  0.00     0.128 C 
ATOM     22  O1  LG1 d5015      23.655  13.813  48.158  0.00  0.00    -0.298 OA
ATOM     23  C8  LG1 d5015      22.700  13.366  46.060  0.00  0.00     0.091 C 
ENDBRANCH   4  21
TORSDOF 1
ENDMDL
