REMARK INTER + INTRA:          -7.592
REMARK INTER:                  -7.423
REMARK INTRA:                  -0.169
REMARK UNBOUND:                -0.125
REMARK  1 active torsions:
REMARK  status: ('A' for Active; 'I' for Inactive)
REMARK    1  A    between atoms: C7_7  and  C4_4 
ROOT
ATOM      1  C1  LG1 d5015      27.632   9.912  47.085  0.00  0.00    -0.004 C 
ATOM      2  C2  LG1 d5015      26.126  10.195  47.101  0.00  0.00    -0.001 C 
ATOM      3  C3  LG1 d5015      25.786  11.695  47.437  0.00  0.00    -0.030 C 
ATOM      4  C4  LG1 d5015      24.230  11.622  47.282  0.00  0.00     0.063 C 
ATOM      5  C5  LG1 d5015      23.988  10.689  46.044  0.00  0.00     0.013 C 
ATOM      6  C6  LG1 d5015      25.329   9.904  45.806  0.00  0.00     0.006 C 
ATOM      7  C9  LG1 d5015      26.373  12.714  46.399  0.00  0.00     0.016 C 
ATOM      8  C10 LG1 d5015      26.310  11.937  48.870  0.00  0.00     0.011 C 
ATOM      9  C11 LG1 d5015      27.835  11.657  48.965  0.00  0.00     0.007 C 
ATOM     10  C12 LG1 d5015      28.197  10.218  48.511  0.00  0.00     0.002 C 
ATOM     11  C13 LG1 d5015      29.742   9.947  48.629  0.00  0.00    -0.016 C 
ATOM     12  C14 LG1 d5015      30.034   8.473  48.133  0.00  0.00    -0.068 C 
ATOM     13  C15 LG1 d5015      30.795   7.616  48.790  0.00  0.00     0.053 C 
ATOM     14  C16 LG1 d5015      31.536   8.008  49.979  0.00  0.00     0.149 C 
ATOM     15  C17 LG1 d5015      31.525   9.462  50.441  0.00  0.00     0.084 C 
ATOM     16  C18 LG1 d5015      30.149  10.096  50.119  0.00  0.00     0.022 C 
ATOM     17  O2  LG1 d5015      32.240   7.180  50.584  0.00  0.00    -0.293 OA
ATOM     18  C19 LG1 d5015      29.369   8.016  46.839  0.00  0.00     0.035 C 
ATOM     19  C20 LG1 d5015      27.882   8.415  46.774  0.00  0.00     0.010 C 
ATOM     20  C21 LG1 d5015      30.596  10.902  47.709  0.00  0.00     0.020 C 
ENDROOT
BRANCH   4  21
ATOM     21  C7  LG1 d5015      23.521  12.985  47.220  0.00  0.00     0.128 C 
ATOM     22  O1  LG1 d5015      23.647  13.780  48.127  0.00  0.00    -0.298 OA
ATOM     23  C8  LG1 d5015      22.687  13.325  46.033  0.00  0.00     0.091 C 
ENDBRANCH   4  21
TORSDOF 1
ENDMDL
