REMARK INTER + INTRA:          -7.125
REMARK INTER:                  -6.924
REMARK INTRA:                  -0.201
REMARK UNBOUND:                -0.201
REMARK  1 active torsions:
REMARK  status: ('A' for Active; 'I' for Inactive)
REMARK    1  A    between atoms: C7_7  and  C4_4 
ROOT
ATOM      1  C1  LG1 d5015      27.088  11.397  47.810  0.00  0.00    -0.004 C 
ATOM      2  C2  LG1 d5015      28.243  10.548  48.351  0.00  0.00    -0.001 C 
ATOM      3  C3  LG1 d5015      29.208  10.031  47.220  0.00  0.00    -0.030 C 
ATOM      4  C4  LG1 d5015      30.263   9.310  48.125  0.00  0.00     0.063 C 
ATOM      5  C5  LG1 d5015      30.433  10.244  49.374  0.00  0.00     0.013 C 
ATOM      6  C6  LG1 d5015      29.188  11.204  49.388  0.00  0.00     0.006 C 
ATOM      7  C9  LG1 d5015      29.903  11.186  46.417  0.00  0.00     0.016 C 
ATOM      8  C10 LG1 d5015      28.352   9.112  46.321  0.00  0.00     0.011 C 
ATOM      9  C11 LG1 d5015      27.134   9.879  45.733  0.00  0.00     0.007 C 
ATOM     10  C12 LG1 d5015      26.246  10.504  46.840  0.00  0.00     0.002 C 
ATOM     11  C13 LG1 d5015      25.010  11.262  46.228  0.00  0.00    -0.016 C 
ATOM     12  C14 LG1 d5015      24.165  11.887  47.412  0.00  0.00    -0.068 C 
ATOM     13  C15 LG1 d5015      22.852  11.783  47.509  0.00  0.00     0.053 C 
ATOM     14  C16 LG1 d5015      22.053  11.182  46.452  0.00  0.00     0.149 C 
ATOM     15  C17 LG1 d5015      22.715  10.741  45.150  0.00  0.00     0.084 C 
ATOM     16  C18 LG1 d5015      24.149  10.235  45.446  0.00  0.00     0.022 C 
ATOM     17  O2  LG1 d5015      20.818  11.091  46.570  0.00  0.00    -0.293 OA
ATOM     18  C19 LG1 d5015      24.924  12.619  48.514  0.00  0.00     0.035 C 
ATOM     19  C20 LG1 d5015      26.173  11.845  48.977  0.00  0.00     0.010 C 
ATOM     20  C21 LG1 d5015      25.436  12.467  45.304  0.00  0.00     0.020 C 
ENDROOT
BRANCH   4  21
ATOM     21  C7  LG1 d5015      31.572   8.928  47.414  0.00  0.00     0.128 C 
ATOM     22  O1  LG1 d5015      31.578   8.050  46.578  0.00  0.00    -0.298 OA
ATOM     23  C8  LG1 d5015      32.829   9.651  47.754  0.00  0.00     0.091 C 
ENDBRANCH   4  21
TORSDOF 1
ENDMDL
