REMARK INTER + INTRA:          -7.310
REMARK INTER:                  -7.124
REMARK INTRA:                  -0.185
REMARK UNBOUND:                -0.138
REMARK  1 active torsions:
REMARK  status: ('A' for Active; 'I' for Inactive)
REMARK    1  A    between atoms: C7_7  and  C4_4 
ROOT
ATOM      1  C1  LG1 d5015      30.220   9.773  47.751  0.00  0.00    -0.004 C 
ATOM      2  C2  LG1 d5015      29.934   9.028  49.059  0.00  0.00    -0.001 C 
ATOM      3  C3  LG1 d5015      29.505   7.531  48.831  0.00  0.00    -0.030 C 
ATOM      4  C4  LG1 d5015      29.389   7.090  50.329  0.00  0.00     0.063 C 
ATOM      5  C5  LG1 d5015      30.591   7.793  51.053  0.00  0.00     0.013 C 
ATOM      6  C6  LG1 d5015      31.078   8.943  50.099  0.00  0.00     0.006 C 
ATOM      7  C9  LG1 d5015      30.603   6.670  48.112  0.00  0.00     0.016 C 
ATOM      8  C10 LG1 d5015      28.179   7.586  48.040  0.00  0.00     0.011 C 
ATOM      9  C11 LG1 d5015      28.359   8.345  46.696  0.00  0.00     0.007 C 
ATOM     10  C12 LG1 d5015      28.906   9.781  46.902  0.00  0.00     0.002 C 
ATOM     11  C13 LG1 d5015      29.066  10.540  45.533  0.00  0.00    -0.016 C 
ATOM     12  C14 LG1 d5015      29.644  11.985  45.822  0.00  0.00    -0.068 C 
ATOM     13  C15 LG1 d5015      29.152  13.090  45.292  0.00  0.00     0.053 C 
ATOM     14  C16 LG1 d5015      28.100  13.053  44.288  0.00  0.00     0.149 C 
ATOM     15  C17 LG1 d5015      27.605  11.714  43.748  0.00  0.00     0.084 C 
ATOM     16  C18 LG1 d5015      27.666  10.650  44.872  0.00  0.00     0.022 C 
ATOM     17  O2  LG1 d5015      27.648  14.108  43.809  0.00  0.00    -0.293 OA
ATOM     18  C19 LG1 d5015      30.814  12.098  46.793  0.00  0.00     0.035 C 
ATOM     19  C20 LG1 d5015      30.609  11.242  48.058  0.00  0.00     0.010 C 
ATOM     20  C21 LG1 d5015      30.096   9.836  44.568  0.00  0.00     0.020 C 
ENDROOT
BRANCH   4  21
ATOM     21  C7  LG1 d5015      29.292   5.572  50.551  0.00  0.00     0.128 C 
ATOM     22  O1  LG1 d5015      28.377   4.942  50.066  0.00  0.00    -0.298 OA
ATOM     23  C8  LG1 d5015      30.335   4.881  51.360  0.00  0.00     0.091 C 
ENDBRANCH   4  21
TORSDOF 1
ENDMDL
