REMARK INTER + INTRA:          -7.624
REMARK INTER:                  -7.469
REMARK INTRA:                  -0.155
REMARK UNBOUND:                -0.196
REMARK  1 active torsions:
REMARK  status: ('A' for Active; 'I' for Inactive)
REMARK    1  A    between atoms: C7_7  and  C4_4 
ROOT
ATOM      1  C1  LG1 d5015      27.622   9.907  47.145  0.00  0.00    -0.004 C 
ATOM      2  C2  LG1 d5015      26.120  10.209  47.150  0.00  0.00    -0.001 C 
ATOM      3  C3  LG1 d5015      25.797  11.716  47.472  0.00  0.00    -0.030 C 
ATOM      4  C4  LG1 d5015      24.242  11.662  47.308  0.00  0.00     0.063 C 
ATOM      5  C5  LG1 d5015      23.996  10.723  46.076  0.00  0.00     0.013 C 
ATOM      6  C6  LG1 d5015      25.327   9.918  45.853  0.00  0.00     0.006 C 
ATOM      7  C9  LG1 d5015      26.404  12.720  46.429  0.00  0.00     0.016 C 
ATOM      8  C10 LG1 d5015      26.316  11.963  48.906  0.00  0.00     0.011 C 
ATOM      9  C11 LG1 d5015      27.838  11.664  49.012  0.00  0.00     0.007 C 
ATOM     10  C12 LG1 d5015      28.183  10.217  48.572  0.00  0.00     0.002 C 
ATOM     11  C13 LG1 d5015      29.724   9.927  48.701  0.00  0.00    -0.016 C 
ATOM     12  C14 LG1 d5015      30.000   8.445  48.218  0.00  0.00    -0.068 C 
ATOM     13  C15 LG1 d5015      30.745   7.583  48.887  0.00  0.00     0.053 C 
ATOM     14  C16 LG1 d5015      31.484   7.976  50.077  0.00  0.00     0.149 C 
ATOM     15  C17 LG1 d5015      31.490   9.433  50.528  0.00  0.00     0.084 C 
ATOM     16  C18 LG1 d5015      30.124  10.083  50.192  0.00  0.00     0.022 C 
ATOM     17  O2  LG1 d5015      32.174   7.144  50.693  0.00  0.00    -0.293 OA
ATOM     18  C19 LG1 d5015      29.336   7.987  46.924  0.00  0.00     0.035 C 
ATOM     19  C20 LG1 d5015      27.855   8.404  46.847  0.00  0.00     0.010 C 
ATOM     20  C21 LG1 d5015      30.596  10.863  47.778  0.00  0.00     0.020 C 
ENDROOT
BRANCH   4  21
ATOM     21  C7  LG1 d5015      23.552  13.034  47.231  0.00  0.00     0.128 C 
ATOM     22  O1  LG1 d5015      23.709  13.848  48.116  0.00  0.00    -0.298 OA
ATOM     23  C8  LG1 d5015      22.695  13.359  46.056  0.00  0.00     0.091 C 
ENDBRANCH   4  21
TORSDOF 1
ENDMDL
