REMARK INTER + INTRA:          -7.192
REMARK INTER:                  -6.987
REMARK INTRA:                  -0.205
REMARK UNBOUND:                -0.138
REMARK  1 active torsions:
REMARK  status: ('A' for Active; 'I' for Inactive)
REMARK    1  A    between atoms: C7_7  and  C4_4 
ROOT
ATOM      1  C1  LG1 d5015      29.025  11.408  47.060  0.00  0.00    -0.004 C 
ATOM      2  C2  LG1 d5015      27.778  11.521  46.177  0.00  0.00    -0.001 C 
ATOM      3  C3  LG1 d5015      26.481  10.961  46.871  0.00  0.00    -0.030 C 
ATOM      4  C4  LG1 d5015      25.446  11.311  45.751  0.00  0.00     0.063 C 
ATOM      5  C5  LG1 d5015      25.888  12.719  45.216  0.00  0.00     0.013 C 
ATOM      6  C6  LG1 d5015      27.371  12.933  45.690  0.00  0.00     0.006 C 
ATOM      7  C9  LG1 d5015      26.105  11.719  48.193  0.00  0.00     0.016 C 
ATOM      8  C10 LG1 d5015      26.741   9.455  47.102  0.00  0.00     0.011 C 
ATOM      9  C11 LG1 d5015      28.005   9.232  47.977  0.00  0.00     0.007 C 
ATOM     10  C12 LG1 d5015      29.267   9.893  47.364  0.00  0.00     0.002 C 
ATOM     11  C13 LG1 d5015      30.540   9.643  48.255  0.00  0.00    -0.016 C 
ATOM     12  C14 LG1 d5015      31.778  10.360  47.577  0.00  0.00    -0.068 C 
ATOM     13  C15 LG1 d5015      32.953   9.783  47.402  0.00  0.00     0.053 C 
ATOM     14  C16 LG1 d5015      33.244   8.463  47.940  0.00  0.00     0.149 C 
ATOM     15  C17 LG1 d5015      32.214   7.749  48.810  0.00  0.00     0.084 C 
ATOM     16  C18 LG1 d5015      30.788   8.112  48.328  0.00  0.00     0.022 C 
ATOM     17  O2  LG1 d5015      34.356   7.938  47.756  0.00  0.00    -0.293 OA
ATOM     18  C19 LG1 d5015      31.581  11.785  47.072  0.00  0.00     0.035 C 
ATOM     19  C20 LG1 d5015      30.259  11.954  46.298  0.00  0.00     0.010 C 
ATOM     20  C21 LG1 d5015      30.402  10.265  49.697  0.00  0.00     0.020 C 
ENDROOT
BRANCH   4  21
ATOM     21  C7  LG1 d5015      23.972  11.209  46.176  0.00  0.00     0.128 C 
ATOM     22  O1  LG1 d5015      23.487  10.130  46.442  0.00  0.00    -0.298 OA
ATOM     23  C8  LG1 d5015      23.148  12.447  46.269  0.00  0.00     0.091 C 
ENDBRANCH   4  21
TORSDOF 1
ENDMDL
