REMARK INTER + INTRA:          -7.212
REMARK INTER:                  -7.008
REMARK INTRA:                  -0.204
REMARK UNBOUND:                -0.125
REMARK  1 active torsions:
REMARK  status: ('A' for Active; 'I' for Inactive)
REMARK    1  A    between atoms: C7_7  and  C4_4 
ROOT
ATOM      1  C1  LG1 d5015      28.928  11.446  47.011  0.00  0.00    -0.004 C 
ATOM      2  C2  LG1 d5015      27.689  11.541  46.114  0.00  0.00    -0.001 C 
ATOM      3  C3  LG1 d5015      26.393  10.961  46.794  0.00  0.00    -0.030 C 
ATOM      4  C4  LG1 d5015      25.365  11.297  45.664  0.00  0.00     0.063 C 
ATOM      5  C5  LG1 d5015      25.791  12.712  45.135  0.00  0.00     0.013 C 
ATOM      6  C6  LG1 d5015      27.266  12.947  45.625  0.00  0.00     0.006 C 
ATOM      7  C9  LG1 d5015      25.992  11.711  48.113  0.00  0.00     0.016 C 
ATOM      8  C10 LG1 d5015      26.673   9.459  47.026  0.00  0.00     0.011 C 
ATOM      9  C11 LG1 d5015      27.931   9.253  47.914  0.00  0.00     0.007 C 
ATOM     10  C12 LG1 d5015      29.189   9.934  47.315  0.00  0.00     0.002 C 
ATOM     11  C13 LG1 d5015      30.456   9.701  48.219  0.00  0.00    -0.016 C 
ATOM     12  C14 LG1 d5015      31.690  10.438  47.555  0.00  0.00    -0.068 C 
ATOM     13  C15 LG1 d5015      32.876   9.879  47.392  0.00  0.00     0.053 C 
ATOM     14  C16 LG1 d5015      33.180   8.563  47.931  0.00  0.00     0.149 C 
ATOM     15  C17 LG1 d5015      32.153   7.832  48.790  0.00  0.00     0.084 C 
ATOM     16  C18 LG1 d5015      30.727   8.175  48.292  0.00  0.00     0.022 C 
ATOM     17  O2  LG1 d5015      34.303   8.055  47.758  0.00  0.00    -0.293 OA
ATOM     18  C19 LG1 d5015      31.477  11.861  47.050  0.00  0.00     0.035 C 
ATOM     19  C20 LG1 d5015      30.162  12.011  46.262  0.00  0.00     0.010 C 
ATOM     20  C21 LG1 d5015      30.294  10.319  49.660  0.00  0.00     0.020 C 
ENDROOT
BRANCH   4  21
ATOM     21  C7  LG1 d5015      23.888  11.173  46.074  0.00  0.00     0.128 C 
ATOM     22  O1  LG1 d5015      23.412  10.084  46.316  0.00  0.00    -0.298 OA
ATOM     23  C8  LG1 d5015      23.049  12.400  46.179  0.00  0.00     0.091 C 
ENDBRANCH   4  21
TORSDOF 1
ENDMDL
