REMARK INTER + INTRA:          -7.047
REMARK INTER:                  -6.844
REMARK INTRA:                  -0.204
REMARK UNBOUND:                -0.202
REMARK  1 active torsions:
REMARK  status: ('A' for Active; 'I' for Inactive)
REMARK    1  A    between atoms: C7_7  and  C4_4 
ROOT
ATOM      1  C1  LG1 d5015      26.779  11.509  47.803  0.00  0.00    -0.004 C 
ATOM      2  C2  LG1 d5015      27.947  10.691  48.364  0.00  0.00    -0.001 C 
ATOM      3  C3  LG1 d5015      28.920  10.163  47.245  0.00  0.00    -0.030 C 
ATOM      4  C4  LG1 d5015      29.985   9.479  48.165  0.00  0.00     0.063 C 
ATOM      5  C5  LG1 d5015      30.140  10.444  49.393  0.00  0.00     0.013 C 
ATOM      6  C6  LG1 d5015      28.881  11.384  49.386  0.00  0.00     0.006 C 
ATOM      7  C9  LG1 d5015      29.596  11.311  46.416  0.00  0.00     0.016 C 
ATOM      8  C10 LG1 d5015      28.078   9.211  46.366  0.00  0.00     0.011 C 
ATOM      9  C11 LG1 d5015      26.849   9.945  45.762  0.00  0.00     0.007 C 
ATOM     10  C12 LG1 d5015      25.950  10.581  46.854  0.00  0.00     0.002 C 
ATOM     11  C13 LG1 d5015      24.703  11.306  46.226  0.00  0.00    -0.016 C 
ATOM     12  C14 LG1 d5015      23.848  11.944  47.395  0.00  0.00    -0.068 C 
ATOM     13  C15 LG1 d5015      22.537  11.822  47.495  0.00  0.00     0.053 C 
ATOM     14  C16 LG1 d5015      21.748  11.185  46.452  0.00  0.00     0.149 C 
ATOM     15  C17 LG1 d5015      22.417  10.725  45.160  0.00  0.00     0.084 C 
ATOM     16  C18 LG1 d5015      23.858  10.248  45.467  0.00  0.00     0.022 C 
ATOM     17  O2  LG1 d5015      20.514  11.077  46.572  0.00  0.00    -0.293 OA
ATOM     18  C19 LG1 d5015      24.595  12.712  48.480  0.00  0.00     0.035 C 
ATOM     19  C20 LG1 d5015      25.856  11.968  48.961  0.00  0.00     0.010 C 
ATOM     20  C21 LG1 d5015      25.110  12.496  45.275  0.00  0.00     0.020 C 
ENDROOT
BRANCH   4  21
ATOM     21  C7  LG1 d5015      31.300   9.102  47.462  0.00  0.00     0.128 C 
ATOM     22  O1  LG1 d5015      31.313   8.232  46.618  0.00  0.00    -0.298 OA
ATOM     23  C8  LG1 d5015      32.555   9.819  47.821  0.00  0.00     0.091 C 
ENDBRANCH   4  21
TORSDOF 1
ENDMDL
