REMARK INTER + INTRA:          -7.980
REMARK INTER:                  -7.837
REMARK INTRA:                  -0.142
REMARK UNBOUND:                -0.125
REMARK  1 active torsions:
REMARK  status: ('A' for Active; 'I' for Inactive)
REMARK    1  A    between atoms: C7_7  and  C4_4 
ROOT
ATOM      1  C1  LG1 d5015      29.330  10.813  46.654  0.00  0.00    -0.004 C 
ATOM      2  C2  LG1 d5015      30.816  10.770  47.026  0.00  0.00    -0.001 C 
ATOM      3  C3  LG1 d5015      31.140   9.701  48.135  0.00  0.00    -0.030 C 
ATOM      4  C4  LG1 d5015      32.694   9.880  48.184  0.00  0.00     0.063 C 
ATOM      5  C5  LG1 d5015      33.128  10.082  46.690  0.00  0.00     0.013 C 
ATOM      6  C6  LG1 d5015      31.827  10.465  45.894  0.00  0.00     0.006 C 
ATOM      7  C9  LG1 d5015      30.791   8.232  47.705  0.00  0.00     0.016 C 
ATOM      8  C10 LG1 d5015      30.369  10.151  49.395  0.00  0.00     0.011 C 
ATOM      9  C11 LG1 d5015      28.843  10.246  49.116  0.00  0.00     0.007 C 
ATOM     10  C12 LG1 d5015      28.522  11.201  47.937  0.00  0.00     0.002 C 
ATOM     11  C13 LG1 d5015      26.973  11.298  47.678  0.00  0.00    -0.016 C 
ATOM     12  C14 LG1 d5015      26.725  12.270  46.455  0.00  0.00    -0.068 C 
ATOM     13  C15 LG1 d5015      25.827  13.239  46.458  0.00  0.00     0.053 C 
ATOM     14  C16 LG1 d5015      24.894  13.410  47.560  0.00  0.00     0.149 C 
ATOM     15  C17 LG1 d5015      24.870  12.403  48.706  0.00  0.00     0.084 C 
ATOM     16  C18 LG1 d5015      26.303  11.871  48.956  0.00  0.00     0.022 C 
ATOM     17  O2  LG1 d5015      24.061  14.334  47.543  0.00  0.00    -0.293 OA
ATOM     18  C19 LG1 d5015      27.602  12.091  45.220  0.00  0.00     0.035 C 
ATOM     19  C20 LG1 d5015      29.089  11.904  45.580  0.00  0.00     0.010 C 
ATOM     20  C21 LG1 d5015      26.338   9.911  47.278  0.00  0.00     0.020 C 
ENDROOT
BRANCH   4  21
ATOM     21  C7  LG1 d5015      33.450   8.772  48.938  0.00  0.00     0.128 C 
ATOM     22  O1  LG1 d5015      34.005   7.887  48.323  0.00  0.00    -0.298 OA
ATOM     23  C8  LG1 d5015      33.500   8.801  50.426  0.00  0.00     0.091 C 
ENDBRANCH   4  21
TORSDOF 1
ENDMDL
