REMARK INTER + INTRA:          -7.610
REMARK INTER:                  -7.452
REMARK INTRA:                  -0.157
REMARK UNBOUND:                -0.201
REMARK  1 active torsions:
REMARK  status: ('A' for Active; 'I' for Inactive)
REMARK    1  A    between atoms: C7_7  and  C4_4 
ROOT
ATOM      1  C1  LG1 d5015      27.626   9.915  47.124  0.00  0.00    -0.004 C 
ATOM      2  C2  LG1 d5015      26.124  10.216  47.130  0.00  0.00    -0.001 C 
ATOM      3  C3  LG1 d5015      25.800  11.720  47.465  0.00  0.00    -0.030 C 
ATOM      4  C4  LG1 d5015      24.245  11.667  47.297  0.00  0.00     0.063 C 
ATOM      5  C5  LG1 d5015      24.001  10.738  46.056  0.00  0.00     0.013 C 
ATOM      6  C6  LG1 d5015      25.333   9.936  45.829  0.00  0.00     0.006 C 
ATOM      7  C9  LG1 d5015      26.408  12.733  46.431  0.00  0.00     0.016 C 
ATOM      8  C10 LG1 d5015      26.316  11.955  48.902  0.00  0.00     0.011 C 
ATOM      9  C11 LG1 d5015      27.837  11.655  49.008  0.00  0.00     0.007 C 
ATOM     10  C12 LG1 d5015      28.184  10.213  48.555  0.00  0.00     0.002 C 
ATOM     11  C13 LG1 d5015      29.725   9.923  48.684  0.00  0.00    -0.016 C 
ATOM     12  C14 LG1 d5015      30.003   8.445  48.190  0.00  0.00    -0.068 C 
ATOM     13  C15 LG1 d5015      30.747   7.578  48.851  0.00  0.00     0.053 C 
ATOM     14  C16 LG1 d5015      31.484   7.960  50.046  0.00  0.00     0.149 C 
ATOM     15  C17 LG1 d5015      31.488   9.414  50.510  0.00  0.00     0.084 C 
ATOM     16  C18 LG1 d5015      30.123  10.065  50.178  0.00  0.00     0.022 C 
ATOM     17  O2  LG1 d5015      32.173   7.123  50.656  0.00  0.00    -0.293 OA
ATOM     18  C19 LG1 d5015      29.342   7.998  46.890  0.00  0.00     0.035 C 
ATOM     19  C20 LG1 d5015      27.860   8.415  46.814  0.00  0.00     0.010 C 
ATOM     20  C21 LG1 d5015      30.598  10.867  47.772  0.00  0.00     0.020 C 
ENDROOT
BRANCH   4  21
ATOM     21  C7  LG1 d5015      23.554  13.039  47.231  0.00  0.00     0.128 C 
ATOM     22  O1  LG1 d5015      23.703  13.841  48.128  0.00  0.00    -0.298 OA
ATOM     23  C8  LG1 d5015      22.707  13.377  46.053  0.00  0.00     0.091 C 
ENDBRANCH   4  21
TORSDOF 1
ENDMDL
