REMARK INTER + INTRA:          -6.962
REMARK INTER:                  -6.836
REMARK INTRA:                  -0.125
REMARK UNBOUND:                -0.125
REMARK  1 active torsions:
REMARK  status: ('A' for Active; 'I' for Inactive)
REMARK    1  A    between atoms: C7_7  and  C4_4 
ROOT
ATOM      1  C1  LG1 d5015      31.314   9.108  48.641  0.00  0.00    -0.004 C 
ATOM      2  C2  LG1 d5015      30.673   9.903  47.498  0.00  0.00    -0.001 C 
ATOM      3  C3  LG1 d5015      29.134  10.153  47.711  0.00  0.00    -0.030 C 
ATOM      4  C4  LG1 d5015      28.862  11.029  46.443  0.00  0.00     0.063 C 
ATOM      5  C5  LG1 d5015      30.120  11.957  46.313  0.00  0.00     0.013 C 
ATOM      6  C6  LG1 d5015      31.249  11.307  47.192  0.00  0.00     0.006 C 
ATOM      7  C9  LG1 d5015      28.810  10.981  49.004  0.00  0.00     0.016 C 
ATOM      8  C10 LG1 d5015      28.475   8.755  47.719  0.00  0.00     0.011 C 
ATOM      9  C11 LG1 d5015      29.074   7.859  48.838  0.00  0.00     0.007 C 
ATOM     10  C12 LG1 d5015      30.613   7.712  48.712  0.00  0.00     0.002 C 
ATOM     11  C13 LG1 d5015      31.199   6.789  49.843  0.00  0.00    -0.016 C 
ATOM     12  C14 LG1 d5015      32.769   6.702  49.660  0.00  0.00    -0.068 C 
ATOM     13  C15 LG1 d5015      33.450   5.571  49.696  0.00  0.00     0.053 C 
ATOM     14  C16 LG1 d5015      32.814   4.308  50.036  0.00  0.00     0.149 C 
ATOM     15  C17 LG1 d5015      31.347   4.279  50.458  0.00  0.00     0.084 C 
ATOM     16  C18 LG1 d5015      30.569   5.378  49.694  0.00  0.00     0.022 C 
ATOM     17  O2  LG1 d5015      33.475   3.254  50.057  0.00  0.00    -0.293 OA
ATOM     18  C19 LG1 d5015      33.523   8.000  49.394  0.00  0.00     0.035 C 
ATOM     19  C20 LG1 d5015      32.819   8.882  48.345  0.00  0.00     0.010 C 
ATOM     20  C21 LG1 d5015      30.953   7.370  51.288  0.00  0.00     0.020 C 
ENDROOT
BRANCH   4  21
ATOM     21  C7  LG1 d5015      27.509  11.760  46.440  0.00  0.00     0.128 C 
ATOM     22  O1  LG1 d5015      27.471  12.971  46.485  0.00  0.00    -0.298 OA
ATOM     23  C8  LG1 d5015      26.248  10.970  46.373  0.00  0.00     0.091 C 
ENDBRANCH   4  21
TORSDOF 1
ENDMDL
