MODEL 1
REMARK VINA RESULT:    -7.341      0.000      0.000
REMARK INTER + INTRA:          -7.972
REMARK INTER:                  -7.828
REMARK INTRA:                  -0.144
REMARK UNBOUND:                -0.202
REMARK  1 active torsions:
REMARK  status: ('A' for Active; 'I' for Inactive)
REMARK    1  A    between atoms: C7_7  and  C4_4 
ROOT
ATOM      1  C1  LG1 d5015      29.346  10.810  46.640  0.00  0.00    -0.004 C 
ATOM      2  C2  LG1 d5015      30.833  10.768  47.008  0.00  0.00    -0.001 C 
ATOM      3  C3  LG1 d5015      31.165   9.687  48.103  0.00  0.00    -0.030 C 
ATOM      4  C4  LG1 d5015      32.718   9.873  48.152  0.00  0.00     0.063 C 
ATOM      5  C5  LG1 d5015      33.147  10.096  46.659  0.00  0.00     0.013 C 
ATOM      6  C6  LG1 d5015      31.844  10.483  45.871  0.00  0.00     0.006 C 
ATOM      7  C9  LG1 d5015      30.822   8.222  47.656  0.00  0.00     0.016 C 
ATOM      8  C10 LG1 d5015      30.395  10.118  49.371  0.00  0.00     0.011 C 
ATOM      9  C11 LG1 d5015      28.868  10.210  49.096  0.00  0.00     0.007 C 
ATOM     10  C12 LG1 d5015      28.539  11.178  47.929  0.00  0.00     0.002 C 
ATOM     11  C13 LG1 d5015      26.989  11.270  47.675  0.00  0.00    -0.016 C 
ATOM     12  C14 LG1 d5015      26.735  12.257  46.464  0.00  0.00    -0.068 C 
ATOM     13  C15 LG1 d5015      25.832  13.221  46.481  0.00  0.00     0.053 C 
ATOM     14  C16 LG1 d5015      24.900  13.375  47.588  0.00  0.00     0.149 C 
ATOM     15  C17 LG1 d5015      24.883  12.353  48.721  0.00  0.00     0.084 C 
ATOM     16  C18 LG1 d5015      26.319  11.825  48.961  0.00  0.00     0.022 C 
ATOM     17  O2  LG1 d5015      24.063  14.295  47.583  0.00  0.00    -0.293 OA
ATOM     18  C19 LG1 d5015      27.610  12.098  45.226  0.00  0.00     0.035 C 
ATOM     19  C20 LG1 d5015      29.098  11.913  45.580  0.00  0.00     0.010 C 
ATOM     20  C21 LG1 d5015      26.360   9.886  47.259  0.00  0.00     0.020 C 
ENDROOT
BRANCH   4  21
ATOM     21  C7  LG1 d5015      33.480   8.759  48.890  0.00  0.00     0.128 C 
ATOM     22  O1  LG1 d5015      34.037   7.883  48.264  0.00  0.00    -0.298 OA
ATOM     23  C8  LG1 d5015      33.535   8.771  50.378  0.00  0.00     0.091 C 
ENDBRANCH   4  21
TORSDOF 1
ENDMDL
MODEL 2
REMARK VINA RESULT:    -6.985      1.731      7.183
REMARK INTER + INTRA:          -7.595
REMARK INTER:                  -7.440
REMARK INTRA:                  -0.156
REMARK UNBOUND:                -0.202
REMARK  1 active torsions:
REMARK  status: ('A' for Active; 'I' for Inactive)
REMARK    1  A    between atoms: C7_7  and  C4_4 
ROOT
ATOM      1  C1  LG1 d5015      27.592   9.935  47.093  0.00  0.00    -0.004 C 
ATOM      2  C2  LG1 d5015      26.088  10.231  47.091  0.00  0.00    -0.001 C 
ATOM      3  C3  LG1 d5015      25.758  11.735  47.420  0.00  0.00    -0.030 C 
ATOM      4  C4  LG1 d5015      24.203  11.676  47.247  0.00  0.00     0.063 C 
ATOM      5  C5  LG1 d5015      23.968  10.742  46.007  0.00  0.00     0.013 C 
ATOM      6  C6  LG1 d5015      25.304   9.944  45.787  0.00  0.00     0.006 C 
ATOM      7  C9  LG1 d5015      26.366  12.747  46.386  0.00  0.00     0.016 C 
ATOM      8  C10 LG1 d5015      26.267  11.975  48.859  0.00  0.00     0.011 C 
ATOM      9  C11 LG1 d5015      27.789  11.682  48.972  0.00  0.00     0.007 C 
ATOM     10  C12 LG1 d5015      28.143  10.239  48.525  0.00  0.00     0.002 C 
ATOM     11  C13 LG1 d5015      29.684   9.954  48.662  0.00  0.00    -0.016 C 
ATOM     12  C14 LG1 d5015      29.969   8.476  48.173  0.00  0.00    -0.068 C 
ATOM     13  C15 LG1 d5015      30.714   7.614  48.840  0.00  0.00     0.053 C 
ATOM     14  C16 LG1 d5015      31.444   8.002  50.037  0.00  0.00     0.149 C 
ATOM     15  C17 LG1 d5015      31.441   9.457  50.496  0.00  0.00     0.084 C 
ATOM     16  C18 LG1 d5015      30.075  10.103  50.156  0.00  0.00     0.022 C 
ATOM     17  O2  LG1 d5015      32.134   7.170  50.652  0.00  0.00    -0.293 OA
ATOM     18  C19 LG1 d5015      29.315   8.023  46.872  0.00  0.00     0.035 C 
ATOM     19  C20 LG1 d5015      27.832   8.435  46.788  0.00  0.00     0.010 C 
ATOM     20  C21 LG1 d5015      30.557  10.899  47.750  0.00  0.00     0.020 C 
ENDROOT
BRANCH   4  21
ATOM     21  C7  LG1 d5015      23.508  13.045  47.173  0.00  0.00     0.128 C 
ATOM     22  O1  LG1 d5015      23.656  13.853  48.064  0.00  0.00    -0.298 OA
ATOM     23  C8  LG1 d5015      22.659  13.374  45.995  0.00  0.00     0.091 C 
ENDBRANCH   4  21
TORSDOF 1
ENDMDL
MODEL 3
REMARK VINA RESULT:    -6.632      1.610      6.945
REMARK INTER + INTRA:          -7.222
REMARK INTER:                  -7.018
REMARK INTRA:                  -0.204
REMARK UNBOUND:                -0.202
REMARK  1 active torsions:
REMARK  status: ('A' for Active; 'I' for Inactive)
REMARK    1  A    between atoms: C7_7  and  C4_4 
ROOT
ATOM      1  C1  LG1 d5015      28.896  11.488  47.006  0.00  0.00    -0.004 C 
ATOM      2  C2  LG1 d5015      27.654  11.583  46.112  0.00  0.00    -0.001 C 
ATOM      3  C3  LG1 d5015      26.364  10.987  46.789  0.00  0.00    -0.030 C 
ATOM      4  C4  LG1 d5015      25.331  11.327  45.663  0.00  0.00     0.063 C 
ATOM      5  C5  LG1 d5015      25.747  12.749  45.147  0.00  0.00     0.013 C 
ATOM      6  C6  LG1 d5015      27.221  12.990  45.637  0.00  0.00     0.006 C 
ATOM      7  C9  LG1 d5015      25.960  11.723  48.116  0.00  0.00     0.016 C 
ATOM      8  C10 LG1 d5015      26.655   9.485  47.007  0.00  0.00     0.011 C 
ATOM      9  C11 LG1 d5015      27.916   9.280  47.891  0.00  0.00     0.007 C 
ATOM     10  C12 LG1 d5015      29.169   9.975  47.296  0.00  0.00     0.002 C 
ATOM     11  C13 LG1 d5015      30.439   9.744  48.195  0.00  0.00    -0.016 C 
ATOM     12  C14 LG1 d5015      31.666  10.495  47.536  0.00  0.00    -0.068 C 
ATOM     13  C15 LG1 d5015      32.856   9.946  47.366  0.00  0.00     0.053 C 
ATOM     14  C16 LG1 d5015      33.170   8.627  47.892  0.00  0.00     0.149 C 
ATOM     15  C17 LG1 d5015      32.150   7.881  48.746  0.00  0.00     0.084 C 
ATOM     16  C18 LG1 d5015      30.720   8.219  48.254  0.00  0.00     0.022 C 
ATOM     17  O2  LG1 d5015      34.296   8.129  47.713  0.00  0.00    -0.293 OA
ATOM     18  C19 LG1 d5015      31.442  11.921  47.045  0.00  0.00     0.035 C 
ATOM     19  C20 LG1 d5015      30.124  12.069  46.260  0.00  0.00     0.010 C 
ATOM     20  C21 LG1 d5015      30.275  10.348  49.643  0.00  0.00     0.020 C 
ENDROOT
BRANCH   4  21
ATOM     21  C7  LG1 d5015      23.856  11.188  46.075  0.00  0.00     0.128 C 
ATOM     22  O1  LG1 d5015      23.388  10.094  46.309  0.00  0.00    -0.298 OA
ATOM     23  C8  LG1 d5015      23.009  12.407  46.192  0.00  0.00     0.091 C 
ENDBRANCH   4  21
TORSDOF 1
ENDMDL
MODEL 4
REMARK VINA RESULT:    -6.489      2.684      6.989
REMARK INTER + INTRA:          -7.071
REMARK INTER:                  -6.869
REMARK INTRA:                  -0.202
REMARK UNBOUND:                -0.202
REMARK  1 active torsions:
REMARK  status: ('A' for Active; 'I' for Inactive)
REMARK    1  A    between atoms: C7_7  and  C4_4 
ROOT
ATOM      1  C1  LG1 d5015      28.174   8.205  47.059  0.00  0.00    -0.004 C 
ATOM      2  C2  LG1 d5015      27.043   9.171  46.690  0.00  0.00    -0.001 C 
ATOM      3  C3  LG1 d5015      27.483  10.681  46.740  0.00  0.00    -0.030 C 
ATOM      4  C4  LG1 d5015      26.150  11.330  46.239  0.00  0.00     0.063 C 
ATOM      5  C5  LG1 d5015      25.631  10.372  45.111  0.00  0.00     0.013 C 
ATOM      6  C6  LG1 d5015      26.391   9.009  45.295  0.00  0.00     0.006 C 
ATOM      7  C9  LG1 d5015      28.645  11.024  45.742  0.00  0.00     0.016 C 
ATOM      8  C10 LG1 d5015      27.860  10.964  48.211  0.00  0.00     0.011 C 
ATOM      9  C11 LG1 d5015      28.994  10.016  48.692  0.00  0.00     0.007 C 
ATOM     10  C12 LG1 d5015      28.619   8.521  48.526  0.00  0.00     0.002 C 
ATOM     11  C13 LG1 d5015      29.771   7.577  49.032  0.00  0.00    -0.016 C 
ATOM     12  C14 LG1 d5015      29.325   6.074  48.814  0.00  0.00    -0.068 C 
ATOM     13  C15 LG1 d5015      29.438   5.134  49.735  0.00  0.00     0.053 C 
ATOM     14  C16 LG1 d5015      30.109   5.384  51.002  0.00  0.00     0.149 C 
ATOM     15  C17 LG1 d5015      30.788   6.726  51.256  0.00  0.00     0.084 C 
ATOM     16  C18 LG1 d5015      29.993   7.850  50.544  0.00  0.00     0.022 C 
ATOM     17  O2  LG1 d5015      30.197   4.484  51.856  0.00  0.00    -0.293 OA
ATOM     18  C19 LG1 d5015      28.699   5.710  47.472  0.00  0.00     0.035 C 
ATOM     19  C20 LG1 d5015      27.655   6.745  47.012  0.00  0.00     0.010 C 
ATOM     20  C21 LG1 d5015      31.109   7.764  48.219  0.00  0.00     0.020 C 
ENDROOT
BRANCH   4  21
ATOM     21  C7  LG1 d5015      26.262  12.810  45.837  0.00  0.00     0.128 C 
ATOM     22  O1  LG1 d5015      26.472  13.657  46.679  0.00  0.00    -0.298 OA
ATOM     23  C8  LG1 d5015      26.120  13.194  44.406  0.00  0.00     0.091 C 
ENDBRANCH   4  21
TORSDOF 1
ENDMDL
MODEL 5
REMARK VINA RESULT:    -6.467      2.196      3.700
REMARK INTER + INTRA:          -7.047
REMARK INTER:                  -6.844
REMARK INTRA:                  -0.204
REMARK UNBOUND:                -0.202
REMARK  1 active torsions:
REMARK  status: ('A' for Active; 'I' for Inactive)
REMARK    1  A    between atoms: C7_7  and  C4_4 
ROOT
ATOM      1  C1  LG1 d5015      26.779  11.509  47.803  0.00  0.00    -0.004 C 
ATOM      2  C2  LG1 d5015      27.947  10.691  48.364  0.00  0.00    -0.001 C 
ATOM      3  C3  LG1 d5015      28.920  10.163  47.245  0.00  0.00    -0.030 C 
ATOM      4  C4  LG1 d5015      29.985   9.479  48.165  0.00  0.00     0.063 C 
ATOM      5  C5  LG1 d5015      30.140  10.444  49.393  0.00  0.00     0.013 C 
ATOM      6  C6  LG1 d5015      28.881  11.384  49.386  0.00  0.00     0.006 C 
ATOM      7  C9  LG1 d5015      29.596  11.311  46.416  0.00  0.00     0.016 C 
ATOM      8  C10 LG1 d5015      28.078   9.211  46.366  0.00  0.00     0.011 C 
ATOM      9  C11 LG1 d5015      26.849   9.945  45.762  0.00  0.00     0.007 C 
ATOM     10  C12 LG1 d5015      25.950  10.581  46.854  0.00  0.00     0.002 C 
ATOM     11  C13 LG1 d5015      24.703  11.306  46.226  0.00  0.00    -0.016 C 
ATOM     12  C14 LG1 d5015      23.848  11.944  47.395  0.00  0.00    -0.068 C 
ATOM     13  C15 LG1 d5015      22.537  11.822  47.495  0.00  0.00     0.053 C 
ATOM     14  C16 LG1 d5015      21.748  11.185  46.452  0.00  0.00     0.149 C 
ATOM     15  C17 LG1 d5015      22.417  10.725  45.160  0.00  0.00     0.084 C 
ATOM     16  C18 LG1 d5015      23.858  10.248  45.467  0.00  0.00     0.022 C 
ATOM     17  O2  LG1 d5015      20.514  11.077  46.572  0.00  0.00    -0.293 OA
ATOM     18  C19 LG1 d5015      24.595  12.712  48.480  0.00  0.00     0.035 C 
ATOM     19  C20 LG1 d5015      25.856  11.968  48.961  0.00  0.00     0.010 C 
ATOM     20  C21 LG1 d5015      25.110  12.496  45.275  0.00  0.00     0.020 C 
ENDROOT
BRANCH   4  21
ATOM     21  C7  LG1 d5015      31.300   9.102  47.462  0.00  0.00     0.128 C 
ATOM     22  O1  LG1 d5015      31.313   8.232  46.618  0.00  0.00    -0.298 OA
ATOM     23  C8  LG1 d5015      32.555   9.819  47.821  0.00  0.00     0.091 C 
ENDBRANCH   4  21
TORSDOF 1
ENDMDL
