REMARK INTER + INTRA:          -7.972
REMARK INTER:                  -7.828
REMARK INTRA:                  -0.144
REMARK UNBOUND:                -0.202
REMARK  1 active torsions:
REMARK  status: ('A' for Active; 'I' for Inactive)
REMARK    1  A    between atoms: C7_7  and  C4_4 
ROOT
ATOM      1  C1  LG1 d5015      29.346  10.810  46.640  0.00  0.00    -0.004 C 
ATOM      2  C2  LG1 d5015      30.833  10.768  47.008  0.00  0.00    -0.001 C 
ATOM      3  C3  LG1 d5015      31.165   9.687  48.103  0.00  0.00    -0.030 C 
ATOM      4  C4  LG1 d5015      32.718   9.873  48.152  0.00  0.00     0.063 C 
ATOM      5  C5  LG1 d5015      33.147  10.096  46.659  0.00  0.00     0.013 C 
ATOM      6  C6  LG1 d5015      31.844  10.483  45.871  0.00  0.00     0.006 C 
ATOM      7  C9  LG1 d5015      30.822   8.222  47.656  0.00  0.00     0.016 C 
ATOM      8  C10 LG1 d5015      30.395  10.118  49.371  0.00  0.00     0.011 C 
ATOM      9  C11 LG1 d5015      28.868  10.210  49.096  0.00  0.00     0.007 C 
ATOM     10  C12 LG1 d5015      28.539  11.178  47.929  0.00  0.00     0.002 C 
ATOM     11  C13 LG1 d5015      26.989  11.270  47.675  0.00  0.00    -0.016 C 
ATOM     12  C14 LG1 d5015      26.735  12.257  46.464  0.00  0.00    -0.068 C 
ATOM     13  C15 LG1 d5015      25.832  13.221  46.481  0.00  0.00     0.053 C 
ATOM     14  C16 LG1 d5015      24.900  13.375  47.588  0.00  0.00     0.149 C 
ATOM     15  C17 LG1 d5015      24.883  12.353  48.721  0.00  0.00     0.084 C 
ATOM     16  C18 LG1 d5015      26.319  11.825  48.961  0.00  0.00     0.022 C 
ATOM     17  O2  LG1 d5015      24.063  14.295  47.583  0.00  0.00    -0.293 OA
ATOM     18  C19 LG1 d5015      27.610  12.098  45.226  0.00  0.00     0.035 C 
ATOM     19  C20 LG1 d5015      29.098  11.913  45.580  0.00  0.00     0.010 C 
ATOM     20  C21 LG1 d5015      26.360   9.886  47.259  0.00  0.00     0.020 C 
ENDROOT
BRANCH   4  21
ATOM     21  C7  LG1 d5015      33.480   8.759  48.890  0.00  0.00     0.128 C 
ATOM     22  O1  LG1 d5015      34.037   7.883  48.264  0.00  0.00    -0.298 OA
ATOM     23  C8  LG1 d5015      33.535   8.771  50.378  0.00  0.00     0.091 C 
ENDBRANCH   4  21
TORSDOF 1
ENDMDL
