REMARK INTER + INTRA:          -7.982
REMARK INTER:                  -7.836
REMARK INTRA:                  -0.146
REMARK UNBOUND:                -0.138
REMARK  1 active torsions:
REMARK  status: ('A' for Active; 'I' for Inactive)
REMARK    1  A    between atoms: C7_7  and  C4_4 
ROOT
ATOM      1  C1  LG1 d5015      29.321  10.826  46.651  0.00  0.00    -0.004 C 
ATOM      2  C2  LG1 d5015      30.809  10.794  47.018  0.00  0.00    -0.001 C 
ATOM      3  C3  LG1 d5015      31.148   9.718  48.116  0.00  0.00    -0.030 C 
ATOM      4  C4  LG1 d5015      32.700   9.912  48.162  0.00  0.00     0.063 C 
ATOM      5  C5  LG1 d5015      33.126  10.133  46.668  0.00  0.00     0.013 C 
ATOM      6  C6  LG1 d5015      31.820  10.510  45.880  0.00  0.00     0.006 C 
ATOM      7  C9  LG1 d5015      30.812   8.250  47.674  0.00  0.00     0.016 C 
ATOM      8  C10 LG1 d5015      30.376  10.148  49.383  0.00  0.00     0.011 C 
ATOM      9  C11 LG1 d5015      28.849  10.231  49.109  0.00  0.00     0.007 C 
ATOM     10  C12 LG1 d5015      28.514  11.193  47.940  0.00  0.00     0.002 C 
ATOM     11  C13 LG1 d5015      26.963  11.277  47.688  0.00  0.00    -0.016 C 
ATOM     12  C14 LG1 d5015      26.702  12.258  46.474  0.00  0.00    -0.068 C 
ATOM     13  C15 LG1 d5015      25.794  13.217  46.488  0.00  0.00     0.053 C 
ATOM     14  C16 LG1 d5015      24.862  13.369  47.595  0.00  0.00     0.149 C 
ATOM     15  C17 LG1 d5015      24.852  12.351  48.732  0.00  0.00     0.084 C 
ATOM     16  C18 LG1 d5015      26.291  11.831  48.972  0.00  0.00     0.022 C 
ATOM     17  O2  LG1 d5015      24.020  14.285  47.589  0.00  0.00    -0.293 OA
ATOM     18  C19 LG1 d5015      27.576  12.100  45.235  0.00  0.00     0.035 C 
ATOM     19  C20 LG1 d5015      29.066  11.924  45.588  0.00  0.00     0.010 C 
ATOM     20  C21 LG1 d5015      26.340   9.887  47.276  0.00  0.00     0.020 C 
ENDROOT
BRANCH   4  21
ATOM     21  C7  LG1 d5015      33.469   8.806  48.903  0.00  0.00     0.128 C 
ATOM     22  O1  LG1 d5015      34.069   7.957  48.279  0.00  0.00    -0.298 OA
ATOM     23  C8  LG1 d5015      33.477   8.790  50.392  0.00  0.00     0.091 C 
ENDBRANCH   4  21
TORSDOF 1
ENDMDL
