REMARK INTER + INTRA:          -7.241
REMARK INTER:                  -7.037
REMARK INTRA:                  -0.204
REMARK UNBOUND:                -0.201
REMARK  1 active torsions:
REMARK  status: ('A' for Active; 'I' for Inactive)
REMARK    1  A    between atoms: C7_7  and  C4_4 
ROOT
ATOM      1  C1  LG1 d5015      28.800  11.543  46.991  0.00  0.00    -0.004 C 
ATOM      2  C2  LG1 d5015      27.547  11.628  46.112  0.00  0.00    -0.001 C 
ATOM      3  C3  LG1 d5015      26.268  11.027  46.806  0.00  0.00    -0.030 C 
ATOM      4  C4  LG1 d5015      25.220  11.358  45.691  0.00  0.00     0.063 C 
ATOM      5  C5  LG1 d5015      25.622  12.781  45.166  0.00  0.00     0.013 C 
ATOM      6  C6  LG1 d5015      27.100  13.032  45.638  0.00  0.00     0.006 C 
ATOM      7  C9  LG1 d5015      25.876  11.764  48.135  0.00  0.00     0.016 C 
ATOM      8  C10 LG1 d5015      26.570   9.528  47.024  0.00  0.00     0.011 C 
ATOM      9  C11 LG1 d5015      27.843   9.332  47.893  0.00  0.00     0.007 C 
ATOM     10  C12 LG1 d5015      29.084  10.032  47.282  0.00  0.00     0.002 C 
ATOM     11  C13 LG1 d5015      30.366   9.810  48.166  0.00  0.00    -0.016 C 
ATOM     12  C14 LG1 d5015      31.582  10.566  47.491  0.00  0.00    -0.068 C 
ATOM     13  C15 LG1 d5015      32.772  10.024  47.307  0.00  0.00     0.053 C 
ATOM     14  C16 LG1 d5015      33.100   8.708  47.833  0.00  0.00     0.149 C 
ATOM     15  C17 LG1 d5015      32.094   7.959  48.701  0.00  0.00     0.084 C 
ATOM     16  C18 LG1 d5015      30.657   8.287  48.226  0.00  0.00     0.022 C 
ATOM     17  O2  LG1 d5015      34.226   8.216  47.642  0.00  0.00    -0.293 OA
ATOM     18  C19 LG1 d5015      31.344  11.990  46.998  0.00  0.00     0.035 C 
ATOM     19  C20 LG1 d5015      30.016  12.129  46.229  0.00  0.00     0.010 C 
ATOM     20  C21 LG1 d5015      30.216  10.417  49.614  0.00  0.00     0.020 C 
ENDROOT
BRANCH   4  21
ATOM     21  C7  LG1 d5015      23.751  11.212  46.121  0.00  0.00     0.128 C 
ATOM     22  O1  LG1 d5015      23.298  10.118  46.382  0.00  0.00    -0.298 OA
ATOM     23  C8  LG1 d5015      22.892  12.425  46.221  0.00  0.00     0.091 C 
ENDBRANCH   4  21
TORSDOF 1
ENDMDL
