REMARK INTER + INTRA:          -7.320
REMARK INTER:                  -7.167
REMARK INTRA:                  -0.153
REMARK UNBOUND:                -0.201
REMARK  1 active torsions:
REMARK  status: ('A' for Active; 'I' for Inactive)
REMARK    1  A    between atoms: C7_7  and  C4_4 
ROOT
ATOM      1  C1  LG1 d5015      30.345   9.613  47.875  0.00  0.00    -0.004 C 
ATOM      2  C2  LG1 d5015      30.057   8.851  49.173  0.00  0.00    -0.001 C 
ATOM      3  C3  LG1 d5015      29.566   7.376  48.922  0.00  0.00    -0.030 C 
ATOM      4  C4  LG1 d5015      29.464   6.908  50.412  0.00  0.00     0.063 C 
ATOM      5  C5  LG1 d5015      30.706   7.549  51.126  0.00  0.00     0.013 C 
ATOM      6  C6  LG1 d5015      31.218   8.700  50.186  0.00  0.00     0.006 C 
ATOM      7  C9  LG1 d5015      30.616   6.491  48.162  0.00  0.00     0.016 C 
ATOM      8  C10 LG1 d5015      28.228   7.499  48.161  0.00  0.00     0.011 C 
ATOM      9  C11 LG1 d5015      28.410   8.280  46.829  0.00  0.00     0.007 C 
ATOM     10  C12 LG1 d5015      29.016   9.689  47.054  0.00  0.00     0.002 C 
ATOM     11  C13 LG1 d5015      29.178  10.471  45.698  0.00  0.00    -0.016 C 
ATOM     12  C14 LG1 d5015      29.816  11.886  46.004  0.00  0.00    -0.068 C 
ATOM     13  C15 LG1 d5015      29.357  13.021  45.509  0.00  0.00     0.053 C 
ATOM     14  C16 LG1 d5015      28.285  13.045  44.526  0.00  0.00     0.149 C 
ATOM     15  C17 LG1 d5015      27.727  11.739  43.969  0.00  0.00     0.084 C 
ATOM     16  C18 LG1 d5015      27.770  10.649  45.069  0.00  0.00     0.022 C 
ATOM     17  O2  LG1 d5015      27.864  14.127  44.079  0.00  0.00    -0.293 OA
ATOM     18  C19 LG1 d5015      31.009  11.934  46.953  0.00  0.00     0.035 C 
ATOM     19  C20 LG1 d5015      30.797  11.059  48.204  0.00  0.00     0.010 C 
ATOM     20  C21 LG1 d5015      30.160   9.749  44.696  0.00  0.00     0.020 C 
ENDROOT
BRANCH   4  21
ATOM     21  C7  LG1 d5015      29.312   5.390  50.605  0.00  0.00     0.128 C 
ATOM     22  O1  LG1 d5015      28.406   4.795  50.063  0.00  0.00    -0.298 OA
ATOM     23  C8  LG1 d5015      30.292   4.657  51.455  0.00  0.00     0.091 C 
ENDBRANCH   4  21
TORSDOF 1
ENDMDL
