MODEL 1
REMARK VINA RESULT:    -7.420      0.000      0.000
REMARK INTER + INTRA:          -7.980
REMARK INTER:                  -7.837
REMARK INTRA:                  -0.142
REMARK UNBOUND:                -0.125
REMARK  1 active torsions:
REMARK  status: ('A' for Active; 'I' for Inactive)
REMARK    1  A    between atoms: C7_7  and  C4_4 
ROOT
ATOM      1  C1  LG1 d5015      29.330  10.813  46.654  0.00  0.00    -0.004 C 
ATOM      2  C2  LG1 d5015      30.816  10.770  47.026  0.00  0.00    -0.001 C 
ATOM      3  C3  LG1 d5015      31.140   9.701  48.135  0.00  0.00    -0.030 C 
ATOM      4  C4  LG1 d5015      32.694   9.880  48.184  0.00  0.00     0.063 C 
ATOM      5  C5  LG1 d5015      33.128  10.082  46.690  0.00  0.00     0.013 C 
ATOM      6  C6  LG1 d5015      31.827  10.465  45.894  0.00  0.00     0.006 C 
ATOM      7  C9  LG1 d5015      30.791   8.232  47.705  0.00  0.00     0.016 C 
ATOM      8  C10 LG1 d5015      30.369  10.151  49.395  0.00  0.00     0.011 C 
ATOM      9  C11 LG1 d5015      28.843  10.246  49.116  0.00  0.00     0.007 C 
ATOM     10  C12 LG1 d5015      28.522  11.201  47.937  0.00  0.00     0.002 C 
ATOM     11  C13 LG1 d5015      26.973  11.298  47.678  0.00  0.00    -0.016 C 
ATOM     12  C14 LG1 d5015      26.725  12.270  46.455  0.00  0.00    -0.068 C 
ATOM     13  C15 LG1 d5015      25.827  13.239  46.458  0.00  0.00     0.053 C 
ATOM     14  C16 LG1 d5015      24.894  13.410  47.560  0.00  0.00     0.149 C 
ATOM     15  C17 LG1 d5015      24.870  12.403  48.706  0.00  0.00     0.084 C 
ATOM     16  C18 LG1 d5015      26.303  11.871  48.956  0.00  0.00     0.022 C 
ATOM     17  O2  LG1 d5015      24.061  14.334  47.543  0.00  0.00    -0.293 OA
ATOM     18  C19 LG1 d5015      27.602  12.091  45.220  0.00  0.00     0.035 C 
ATOM     19  C20 LG1 d5015      29.089  11.904  45.580  0.00  0.00     0.010 C 
ATOM     20  C21 LG1 d5015      26.338   9.911  47.278  0.00  0.00     0.020 C 
ENDROOT
BRANCH   4  21
ATOM     21  C7  LG1 d5015      33.450   8.772  48.938  0.00  0.00     0.128 C 
ATOM     22  O1  LG1 d5015      34.005   7.887  48.323  0.00  0.00    -0.298 OA
ATOM     23  C8  LG1 d5015      33.500   8.801  50.426  0.00  0.00     0.091 C 
ENDBRANCH   4  21
TORSDOF 1
ENDMDL
MODEL 2
REMARK VINA RESULT:    -7.055      1.682      7.175
REMARK INTER + INTRA:          -7.592
REMARK INTER:                  -7.423
REMARK INTRA:                  -0.169
REMARK UNBOUND:                -0.125
REMARK  1 active torsions:
REMARK  status: ('A' for Active; 'I' for Inactive)
REMARK    1  A    between atoms: C7_7  and  C4_4 
ROOT
ATOM      1  C1  LG1 d5015      27.632   9.912  47.085  0.00  0.00    -0.004 C 
ATOM      2  C2  LG1 d5015      26.126  10.195  47.101  0.00  0.00    -0.001 C 
ATOM      3  C3  LG1 d5015      25.786  11.695  47.437  0.00  0.00    -0.030 C 
ATOM      4  C4  LG1 d5015      24.230  11.622  47.282  0.00  0.00     0.063 C 
ATOM      5  C5  LG1 d5015      23.988  10.689  46.044  0.00  0.00     0.013 C 
ATOM      6  C6  LG1 d5015      25.329   9.904  45.806  0.00  0.00     0.006 C 
ATOM      7  C9  LG1 d5015      26.373  12.714  46.399  0.00  0.00     0.016 C 
ATOM      8  C10 LG1 d5015      26.310  11.937  48.870  0.00  0.00     0.011 C 
ATOM      9  C11 LG1 d5015      27.835  11.657  48.965  0.00  0.00     0.007 C 
ATOM     10  C12 LG1 d5015      28.197  10.218  48.511  0.00  0.00     0.002 C 
ATOM     11  C13 LG1 d5015      29.742   9.947  48.629  0.00  0.00    -0.016 C 
ATOM     12  C14 LG1 d5015      30.034   8.473  48.133  0.00  0.00    -0.068 C 
ATOM     13  C15 LG1 d5015      30.795   7.616  48.790  0.00  0.00     0.053 C 
ATOM     14  C16 LG1 d5015      31.536   8.008  49.979  0.00  0.00     0.149 C 
ATOM     15  C17 LG1 d5015      31.525   9.462  50.441  0.00  0.00     0.084 C 
ATOM     16  C18 LG1 d5015      30.149  10.096  50.119  0.00  0.00     0.022 C 
ATOM     17  O2  LG1 d5015      32.240   7.180  50.584  0.00  0.00    -0.293 OA
ATOM     18  C19 LG1 d5015      29.369   8.016  46.839  0.00  0.00     0.035 C 
ATOM     19  C20 LG1 d5015      27.882   8.415  46.774  0.00  0.00     0.010 C 
ATOM     20  C21 LG1 d5015      30.596  10.902  47.709  0.00  0.00     0.020 C 
ENDROOT
BRANCH   4  21
ATOM     21  C7  LG1 d5015      23.521  12.985  47.220  0.00  0.00     0.128 C 
ATOM     22  O1  LG1 d5015      23.647  13.780  48.127  0.00  0.00    -0.298 OA
ATOM     23  C8  LG1 d5015      22.687  13.325  46.033  0.00  0.00     0.091 C 
ENDBRANCH   4  21
TORSDOF 1
ENDMDL
MODEL 3
REMARK VINA RESULT:    -6.696      1.612      6.945
REMARK INTER + INTRA:          -7.212
REMARK INTER:                  -7.008
REMARK INTRA:                  -0.204
REMARK UNBOUND:                -0.125
REMARK  1 active torsions:
REMARK  status: ('A' for Active; 'I' for Inactive)
REMARK    1  A    between atoms: C7_7  and  C4_4 
ROOT
ATOM      1  C1  LG1 d5015      28.928  11.446  47.011  0.00  0.00    -0.004 C 
ATOM      2  C2  LG1 d5015      27.689  11.541  46.114  0.00  0.00    -0.001 C 
ATOM      3  C3  LG1 d5015      26.393  10.961  46.794  0.00  0.00    -0.030 C 
ATOM      4  C4  LG1 d5015      25.365  11.297  45.664  0.00  0.00     0.063 C 
ATOM      5  C5  LG1 d5015      25.791  12.712  45.135  0.00  0.00     0.013 C 
ATOM      6  C6  LG1 d5015      27.266  12.947  45.625  0.00  0.00     0.006 C 
ATOM      7  C9  LG1 d5015      25.992  11.711  48.113  0.00  0.00     0.016 C 
ATOM      8  C10 LG1 d5015      26.673   9.459  47.026  0.00  0.00     0.011 C 
ATOM      9  C11 LG1 d5015      27.931   9.253  47.914  0.00  0.00     0.007 C 
ATOM     10  C12 LG1 d5015      29.189   9.934  47.315  0.00  0.00     0.002 C 
ATOM     11  C13 LG1 d5015      30.456   9.701  48.219  0.00  0.00    -0.016 C 
ATOM     12  C14 LG1 d5015      31.690  10.438  47.555  0.00  0.00    -0.068 C 
ATOM     13  C15 LG1 d5015      32.876   9.879  47.392  0.00  0.00     0.053 C 
ATOM     14  C16 LG1 d5015      33.180   8.563  47.931  0.00  0.00     0.149 C 
ATOM     15  C17 LG1 d5015      32.153   7.832  48.790  0.00  0.00     0.084 C 
ATOM     16  C18 LG1 d5015      30.727   8.175  48.292  0.00  0.00     0.022 C 
ATOM     17  O2  LG1 d5015      34.303   8.055  47.758  0.00  0.00    -0.293 OA
ATOM     18  C19 LG1 d5015      31.477  11.861  47.050  0.00  0.00     0.035 C 
ATOM     19  C20 LG1 d5015      30.162  12.011  46.262  0.00  0.00     0.010 C 
ATOM     20  C21 LG1 d5015      30.294  10.319  49.660  0.00  0.00     0.020 C 
ENDROOT
BRANCH   4  21
ATOM     21  C7  LG1 d5015      23.888  11.173  46.074  0.00  0.00     0.128 C 
ATOM     22  O1  LG1 d5015      23.412  10.084  46.316  0.00  0.00    -0.298 OA
ATOM     23  C8  LG1 d5015      23.049  12.400  46.179  0.00  0.00     0.091 C 
ENDBRANCH   4  21
TORSDOF 1
ENDMDL
MODEL 4
REMARK VINA RESULT:    -6.554      1.706      7.390
REMARK INTER + INTRA:          -7.062
REMARK INTER:                  -6.937
REMARK INTRA:                  -0.125
REMARK UNBOUND:                -0.125
REMARK  1 active torsions:
REMARK  status: ('A' for Active; 'I' for Inactive)
REMARK    1  A    between atoms: C7_7  and  C4_4 
ROOT
ATOM      1  C1  LG1 d5015      27.457  10.957  47.794  0.00  0.00    -0.004 C 
ATOM      2  C2  LG1 d5015      26.334  12.000  47.783  0.00  0.00    -0.001 C 
ATOM      3  C3  LG1 d5015      25.275  11.749  46.646  0.00  0.00    -0.030 C 
ATOM      4  C4  LG1 d5015      24.282  12.909  46.992  0.00  0.00     0.063 C 
ATOM      5  C5  LG1 d5015      24.227  12.943  48.559  0.00  0.00     0.013 C 
ATOM      6  C6  LG1 d5015      25.486  12.151  49.069  0.00  0.00     0.006 C 
ATOM      7  C9  LG1 d5015      24.539  10.369  46.774  0.00  0.00     0.016 C 
ATOM      8  C10 LG1 d5015      26.042  11.893  45.313  0.00  0.00     0.011 C 
ATOM      9  C11 LG1 d5015      27.223  10.885  45.234  0.00  0.00     0.007 C 
ATOM     10  C12 LG1 d5015      28.206  11.039  46.423  0.00  0.00     0.002 C 
ATOM     11  C13 LG1 d5015      29.402  10.022  46.318  0.00  0.00    -0.016 C 
ATOM     12  C14 LG1 d5015      30.348  10.225  47.570  0.00  0.00    -0.068 C 
ATOM     13  C15 LG1 d5015      31.663  10.321  47.488  0.00  0.00     0.053 C 
ATOM     14  C16 LG1 d5015      32.366  10.119  46.230  0.00  0.00     0.149 C 
ATOM     15  C17 LG1 d5015      31.596   9.693  44.984  0.00  0.00     0.084 C 
ATOM     16  C18 LG1 d5015      30.182  10.323  45.010  0.00  0.00     0.022 C 
ATOM     17  O2  LG1 d5015      33.604  10.221  46.177  0.00  0.00    -0.293 OA
ATOM     18  C19 LG1 d5015      29.691  10.349  48.941  0.00  0.00     0.035 C 
ATOM     19  C20 LG1 d5015      28.469  11.288  48.921  0.00  0.00     0.010 C 
ATOM     20  C21 LG1 d5015      28.926   8.519  46.361  0.00  0.00     0.020 C 
ENDROOT
BRANCH   4  21
ATOM     21  C7  LG1 d5015      22.915  12.820  46.293  0.00  0.00     0.128 C 
ATOM     22  O1  LG1 d5015      21.964  12.344  46.874  0.00  0.00    -0.298 OA
ATOM     23  C8  LG1 d5015      22.768  13.331  44.901  0.00  0.00     0.091 C 
ENDBRANCH   4  21
TORSDOF 1
ENDMDL
MODEL 5
REMARK VINA RESULT:    -6.459      2.538      7.296
REMARK INTER + INTRA:          -6.962
REMARK INTER:                  -6.836
REMARK INTRA:                  -0.125
REMARK UNBOUND:                -0.125
REMARK  1 active torsions:
REMARK  status: ('A' for Active; 'I' for Inactive)
REMARK    1  A    between atoms: C7_7  and  C4_4 
ROOT
ATOM      1  C1  LG1 d5015      31.314   9.108  48.641  0.00  0.00    -0.004 C 
ATOM      2  C2  LG1 d5015      30.673   9.903  47.498  0.00  0.00    -0.001 C 
ATOM      3  C3  LG1 d5015      29.134  10.153  47.711  0.00  0.00    -0.030 C 
ATOM      4  C4  LG1 d5015      28.862  11.029  46.443  0.00  0.00     0.063 C 
ATOM      5  C5  LG1 d5015      30.120  11.957  46.313  0.00  0.00     0.013 C 
ATOM      6  C6  LG1 d5015      31.249  11.307  47.192  0.00  0.00     0.006 C 
ATOM      7  C9  LG1 d5015      28.810  10.981  49.004  0.00  0.00     0.016 C 
ATOM      8  C10 LG1 d5015      28.475   8.755  47.719  0.00  0.00     0.011 C 
ATOM      9  C11 LG1 d5015      29.074   7.859  48.838  0.00  0.00     0.007 C 
ATOM     10  C12 LG1 d5015      30.613   7.712  48.712  0.00  0.00     0.002 C 
ATOM     11  C13 LG1 d5015      31.199   6.789  49.843  0.00  0.00    -0.016 C 
ATOM     12  C14 LG1 d5015      32.769   6.702  49.660  0.00  0.00    -0.068 C 
ATOM     13  C15 LG1 d5015      33.450   5.571  49.696  0.00  0.00     0.053 C 
ATOM     14  C16 LG1 d5015      32.814   4.308  50.036  0.00  0.00     0.149 C 
ATOM     15  C17 LG1 d5015      31.347   4.279  50.458  0.00  0.00     0.084 C 
ATOM     16  C18 LG1 d5015      30.569   5.378  49.694  0.00  0.00     0.022 C 
ATOM     17  O2  LG1 d5015      33.475   3.254  50.057  0.00  0.00    -0.293 OA
ATOM     18  C19 LG1 d5015      33.523   8.000  49.394  0.00  0.00     0.035 C 
ATOM     19  C20 LG1 d5015      32.819   8.882  48.345  0.00  0.00     0.010 C 
ATOM     20  C21 LG1 d5015      30.953   7.370  51.288  0.00  0.00     0.020 C 
ENDROOT
BRANCH   4  21
ATOM     21  C7  LG1 d5015      27.509  11.760  46.440  0.00  0.00     0.128 C 
ATOM     22  O1  LG1 d5015      27.471  12.971  46.485  0.00  0.00    -0.298 OA
ATOM     23  C8  LG1 d5015      26.248  10.970  46.373  0.00  0.00     0.091 C 
ENDBRANCH   4  21
TORSDOF 1
ENDMDL
