REMARK INTER + INTRA:          -7.595
REMARK INTER:                  -7.440
REMARK INTRA:                  -0.156
REMARK UNBOUND:                -0.202
REMARK  1 active torsions:
REMARK  status: ('A' for Active; 'I' for Inactive)
REMARK    1  A    between atoms: C7_7  and  C4_4 
ROOT
ATOM      1  C1  LG1 d5015      27.592   9.935  47.093  0.00  0.00    -0.004 C 
ATOM      2  C2  LG1 d5015      26.088  10.231  47.091  0.00  0.00    -0.001 C 
ATOM      3  C3  LG1 d5015      25.758  11.735  47.420  0.00  0.00    -0.030 C 
ATOM      4  C4  LG1 d5015      24.203  11.676  47.247  0.00  0.00     0.063 C 
ATOM      5  C5  LG1 d5015      23.968  10.742  46.007  0.00  0.00     0.013 C 
ATOM      6  C6  LG1 d5015      25.304   9.944  45.787  0.00  0.00     0.006 C 
ATOM      7  C9  LG1 d5015      26.366  12.747  46.386  0.00  0.00     0.016 C 
ATOM      8  C10 LG1 d5015      26.267  11.975  48.859  0.00  0.00     0.011 C 
ATOM      9  C11 LG1 d5015      27.789  11.682  48.972  0.00  0.00     0.007 C 
ATOM     10  C12 LG1 d5015      28.143  10.239  48.525  0.00  0.00     0.002 C 
ATOM     11  C13 LG1 d5015      29.684   9.954  48.662  0.00  0.00    -0.016 C 
ATOM     12  C14 LG1 d5015      29.969   8.476  48.173  0.00  0.00    -0.068 C 
ATOM     13  C15 LG1 d5015      30.714   7.614  48.840  0.00  0.00     0.053 C 
ATOM     14  C16 LG1 d5015      31.444   8.002  50.037  0.00  0.00     0.149 C 
ATOM     15  C17 LG1 d5015      31.441   9.457  50.496  0.00  0.00     0.084 C 
ATOM     16  C18 LG1 d5015      30.075  10.103  50.156  0.00  0.00     0.022 C 
ATOM     17  O2  LG1 d5015      32.134   7.170  50.652  0.00  0.00    -0.293 OA
ATOM     18  C19 LG1 d5015      29.315   8.023  46.872  0.00  0.00     0.035 C 
ATOM     19  C20 LG1 d5015      27.832   8.435  46.788  0.00  0.00     0.010 C 
ATOM     20  C21 LG1 d5015      30.557  10.899  47.750  0.00  0.00     0.020 C 
ENDROOT
BRANCH   4  21
ATOM     21  C7  LG1 d5015      23.508  13.045  47.173  0.00  0.00     0.128 C 
ATOM     22  O1  LG1 d5015      23.656  13.853  48.064  0.00  0.00    -0.298 OA
ATOM     23  C8  LG1 d5015      22.659  13.374  45.995  0.00  0.00     0.091 C 
ENDBRANCH   4  21
TORSDOF 1
ENDMDL
