REMARK INTER + INTRA:          -7.222
REMARK INTER:                  -7.018
REMARK INTRA:                  -0.204
REMARK UNBOUND:                -0.202
REMARK  1 active torsions:
REMARK  status: ('A' for Active; 'I' for Inactive)
REMARK    1  A    between atoms: C7_7  and  C4_4 
ROOT
ATOM      1  C1  LG1 d5015      28.896  11.488  47.006  0.00  0.00    -0.004 C 
ATOM      2  C2  LG1 d5015      27.654  11.583  46.112  0.00  0.00    -0.001 C 
ATOM      3  C3  LG1 d5015      26.364  10.987  46.789  0.00  0.00    -0.030 C 
ATOM      4  C4  LG1 d5015      25.331  11.327  45.663  0.00  0.00     0.063 C 
ATOM      5  C5  LG1 d5015      25.747  12.749  45.147  0.00  0.00     0.013 C 
ATOM      6  C6  LG1 d5015      27.221  12.990  45.637  0.00  0.00     0.006 C 
ATOM      7  C9  LG1 d5015      25.960  11.723  48.116  0.00  0.00     0.016 C 
ATOM      8  C10 LG1 d5015      26.655   9.485  47.007  0.00  0.00     0.011 C 
ATOM      9  C11 LG1 d5015      27.916   9.280  47.891  0.00  0.00     0.007 C 
ATOM     10  C12 LG1 d5015      29.169   9.975  47.296  0.00  0.00     0.002 C 
ATOM     11  C13 LG1 d5015      30.439   9.744  48.195  0.00  0.00    -0.016 C 
ATOM     12  C14 LG1 d5015      31.666  10.495  47.536  0.00  0.00    -0.068 C 
ATOM     13  C15 LG1 d5015      32.856   9.946  47.366  0.00  0.00     0.053 C 
ATOM     14  C16 LG1 d5015      33.170   8.627  47.892  0.00  0.00     0.149 C 
ATOM     15  C17 LG1 d5015      32.150   7.881  48.746  0.00  0.00     0.084 C 
ATOM     16  C18 LG1 d5015      30.720   8.219  48.254  0.00  0.00     0.022 C 
ATOM     17  O2  LG1 d5015      34.296   8.129  47.713  0.00  0.00    -0.293 OA
ATOM     18  C19 LG1 d5015      31.442  11.921  47.045  0.00  0.00     0.035 C 
ATOM     19  C20 LG1 d5015      30.124  12.069  46.260  0.00  0.00     0.010 C 
ATOM     20  C21 LG1 d5015      30.275  10.348  49.643  0.00  0.00     0.020 C 
ENDROOT
BRANCH   4  21
ATOM     21  C7  LG1 d5015      23.856  11.188  46.075  0.00  0.00     0.128 C 
ATOM     22  O1  LG1 d5015      23.388  10.094  46.309  0.00  0.00    -0.298 OA
ATOM     23  C8  LG1 d5015      23.009  12.407  46.192  0.00  0.00     0.091 C 
ENDBRANCH   4  21
TORSDOF 1
ENDMDL
