REMARK INTER + INTRA:          -6.943
REMARK INTER:                  -6.805
REMARK INTRA:                  -0.138
REMARK UNBOUND:                -0.138
REMARK  1 active torsions:
REMARK  status: ('A' for Active; 'I' for Inactive)
REMARK    1  A    between atoms: C7_7  and  C4_4 
ROOT
ATOM      1  C1  LG1 d5015      31.274   9.134  48.604  0.00  0.00    -0.004 C 
ATOM      2  C2  LG1 d5015      30.624   9.921  47.461  0.00  0.00    -0.001 C 
ATOM      3  C3  LG1 d5015      29.078  10.135  47.666  0.00  0.00    -0.030 C 
ATOM      4  C4  LG1 d5015      28.794  11.013  46.401  0.00  0.00     0.063 C 
ATOM      5  C5  LG1 d5015      30.032  11.970  46.286  0.00  0.00     0.013 C 
ATOM      6  C6  LG1 d5015      31.170  11.340  47.168  0.00  0.00     0.006 C 
ATOM      7  C9  LG1 d5015      28.727  10.947  48.962  0.00  0.00     0.016 C 
ATOM      8  C10 LG1 d5015      28.451   8.723  47.660  0.00  0.00     0.011 C 
ATOM      9  C11 LG1 d5015      29.062   7.833  48.778  0.00  0.00     0.007 C 
ATOM     10  C12 LG1 d5015      30.604   7.722  48.661  0.00  0.00     0.002 C 
ATOM     11  C13 LG1 d5015      31.204   6.805  49.791  0.00  0.00    -0.016 C 
ATOM     12  C14 LG1 d5015      32.776   6.755  49.617  0.00  0.00    -0.068 C 
ATOM     13  C15 LG1 d5015      33.483   5.639  49.651  0.00  0.00     0.053 C 
ATOM     14  C16 LG1 d5015      32.873   4.360  49.979  0.00  0.00     0.149 C 
ATOM     15  C17 LG1 d5015      31.405   4.295  50.391  0.00  0.00     0.084 C 
ATOM     16  C18 LG1 d5015      30.607   5.381  49.628  0.00  0.00     0.022 C 
ATOM     17  O2  LG1 d5015      33.558   3.322  49.998  0.00  0.00    -0.293 OA
ATOM     18  C19 LG1 d5015      33.503   8.071  49.365  0.00  0.00     0.035 C 
ATOM     19  C20 LG1 d5015      32.786   8.944  48.317  0.00  0.00     0.010 C 
ATOM     20  C21 LG1 d5015      30.935   7.372  51.237  0.00  0.00     0.020 C 
ENDROOT
BRANCH   4  21
ATOM     21  C7  LG1 d5015      27.425  11.714  46.394  0.00  0.00     0.128 C 
ATOM     22  O1  LG1 d5015      27.357  12.920  46.492  0.00  0.00    -0.298 OA
ATOM     23  C8  LG1 d5015      26.186  10.899  46.257  0.00  0.00     0.091 C 
ENDBRANCH   4  21
TORSDOF 1
ENDMDL
