MODEL 1
REMARK VINA RESULT:    -7.352      0.000      0.000
REMARK INTER + INTRA:          -7.983
REMARK INTER:                  -7.839
REMARK INTRA:                  -0.144
REMARK UNBOUND:                -0.201
REMARK  1 active torsions:
REMARK  status: ('A' for Active; 'I' for Inactive)
REMARK    1  A    between atoms: C7_7  and  C4_4 
ROOT
ATOM      1  C1  LG1 d5015      29.337  10.811  46.644  0.00  0.00    -0.004 C 
ATOM      2  C2  LG1 d5015      30.826  10.774  47.007  0.00  0.00    -0.001 C 
ATOM      3  C3  LG1 d5015      31.164   9.698  48.105  0.00  0.00    -0.030 C 
ATOM      4  C4  LG1 d5015      32.717   9.887  48.147  0.00  0.00     0.063 C 
ATOM      5  C5  LG1 d5015      33.140  10.105  46.652  0.00  0.00     0.013 C 
ATOM      6  C6  LG1 d5015      31.833  10.486  45.867  0.00  0.00     0.006 C 
ATOM      7  C9  LG1 d5015      30.823   8.231  47.665  0.00  0.00     0.016 C 
ATOM      8  C10 LG1 d5015      30.398  10.133  49.374  0.00  0.00     0.011 C 
ATOM      9  C11 LG1 d5015      28.870  10.220  49.104  0.00  0.00     0.007 C 
ATOM     10  C12 LG1 d5015      28.535  11.182  47.935  0.00  0.00     0.002 C 
ATOM     11  C13 LG1 d5015      26.983  11.270  47.687  0.00  0.00    -0.016 C 
ATOM     12  C14 LG1 d5015      26.722  12.252  46.473  0.00  0.00    -0.068 C 
ATOM     13  C15 LG1 d5015      25.817  13.214  46.489  0.00  0.00     0.053 C 
ATOM     14  C16 LG1 d5015      24.889  13.370  47.598  0.00  0.00     0.149 C 
ATOM     15  C17 LG1 d5015      24.879  12.353  48.735  0.00  0.00     0.084 C 
ATOM     16  C18 LG1 d5015      26.317  11.829  48.972  0.00  0.00     0.022 C 
ATOM     17  O2  LG1 d5015      24.050  14.288  47.593  0.00  0.00    -0.293 OA
ATOM     18  C19 LG1 d5015      27.593  12.089  45.231  0.00  0.00     0.035 C 
ATOM     19  C20 LG1 d5015      29.083  11.909  45.581  0.00  0.00     0.010 C 
ATOM     20  C21 LG1 d5015      26.356   9.883  47.278  0.00  0.00     0.020 C 
ENDROOT
BRANCH   4  21
ATOM     21  C7  LG1 d5015      33.485   8.779  48.887  0.00  0.00     0.128 C 
ATOM     22  O1  LG1 d5015      34.041   7.902  48.262  0.00  0.00    -0.298 OA
ATOM     23  C8  LG1 d5015      33.545   8.796  50.375  0.00  0.00     0.091 C 
ENDBRANCH   4  21
TORSDOF 1
ENDMDL
MODEL 2
REMARK VINA RESULT:    -7.000      1.720      7.175
REMARK INTER + INTRA:          -7.610
REMARK INTER:                  -7.452
REMARK INTRA:                  -0.157
REMARK UNBOUND:                -0.201
REMARK  1 active torsions:
REMARK  status: ('A' for Active; 'I' for Inactive)
REMARK    1  A    between atoms: C7_7  and  C4_4 
ROOT
ATOM      1  C1  LG1 d5015      27.626   9.915  47.124  0.00  0.00    -0.004 C 
ATOM      2  C2  LG1 d5015      26.124  10.216  47.130  0.00  0.00    -0.001 C 
ATOM      3  C3  LG1 d5015      25.800  11.720  47.465  0.00  0.00    -0.030 C 
ATOM      4  C4  LG1 d5015      24.245  11.667  47.297  0.00  0.00     0.063 C 
ATOM      5  C5  LG1 d5015      24.001  10.738  46.056  0.00  0.00     0.013 C 
ATOM      6  C6  LG1 d5015      25.333   9.936  45.829  0.00  0.00     0.006 C 
ATOM      7  C9  LG1 d5015      26.408  12.733  46.431  0.00  0.00     0.016 C 
ATOM      8  C10 LG1 d5015      26.316  11.955  48.902  0.00  0.00     0.011 C 
ATOM      9  C11 LG1 d5015      27.837  11.655  49.008  0.00  0.00     0.007 C 
ATOM     10  C12 LG1 d5015      28.184  10.213  48.555  0.00  0.00     0.002 C 
ATOM     11  C13 LG1 d5015      29.725   9.923  48.684  0.00  0.00    -0.016 C 
ATOM     12  C14 LG1 d5015      30.003   8.445  48.190  0.00  0.00    -0.068 C 
ATOM     13  C15 LG1 d5015      30.747   7.578  48.851  0.00  0.00     0.053 C 
ATOM     14  C16 LG1 d5015      31.484   7.960  50.046  0.00  0.00     0.149 C 
ATOM     15  C17 LG1 d5015      31.488   9.414  50.510  0.00  0.00     0.084 C 
ATOM     16  C18 LG1 d5015      30.123  10.065  50.178  0.00  0.00     0.022 C 
ATOM     17  O2  LG1 d5015      32.173   7.123  50.656  0.00  0.00    -0.293 OA
ATOM     18  C19 LG1 d5015      29.342   7.998  46.890  0.00  0.00     0.035 C 
ATOM     19  C20 LG1 d5015      27.860   8.415  46.814  0.00  0.00     0.010 C 
ATOM     20  C21 LG1 d5015      30.598  10.867  47.772  0.00  0.00     0.020 C 
ENDROOT
BRANCH   4  21
ATOM     21  C7  LG1 d5015      23.554  13.039  47.231  0.00  0.00     0.128 C 
ATOM     22  O1  LG1 d5015      23.703  13.841  48.128  0.00  0.00    -0.298 OA
ATOM     23  C8  LG1 d5015      22.707  13.377  46.053  0.00  0.00     0.091 C 
ENDBRANCH   4  21
TORSDOF 1
ENDMDL
MODEL 3
REMARK VINA RESULT:    -6.726      3.007      4.234
REMARK INTER + INTRA:          -7.320
REMARK INTER:                  -7.167
REMARK INTRA:                  -0.153
REMARK UNBOUND:                -0.201
REMARK  1 active torsions:
REMARK  status: ('A' for Active; 'I' for Inactive)
REMARK    1  A    between atoms: C7_7  and  C4_4 
ROOT
ATOM      1  C1  LG1 d5015      30.345   9.613  47.875  0.00  0.00    -0.004 C 
ATOM      2  C2  LG1 d5015      30.057   8.851  49.173  0.00  0.00    -0.001 C 
ATOM      3  C3  LG1 d5015      29.566   7.376  48.922  0.00  0.00    -0.030 C 
ATOM      4  C4  LG1 d5015      29.464   6.908  50.412  0.00  0.00     0.063 C 
ATOM      5  C5  LG1 d5015      30.706   7.549  51.126  0.00  0.00     0.013 C 
ATOM      6  C6  LG1 d5015      31.218   8.700  50.186  0.00  0.00     0.006 C 
ATOM      7  C9  LG1 d5015      30.616   6.491  48.162  0.00  0.00     0.016 C 
ATOM      8  C10 LG1 d5015      28.228   7.499  48.161  0.00  0.00     0.011 C 
ATOM      9  C11 LG1 d5015      28.410   8.280  46.829  0.00  0.00     0.007 C 
ATOM     10  C12 LG1 d5015      29.016   9.689  47.054  0.00  0.00     0.002 C 
ATOM     11  C13 LG1 d5015      29.178  10.471  45.698  0.00  0.00    -0.016 C 
ATOM     12  C14 LG1 d5015      29.816  11.886  46.004  0.00  0.00    -0.068 C 
ATOM     13  C15 LG1 d5015      29.357  13.021  45.509  0.00  0.00     0.053 C 
ATOM     14  C16 LG1 d5015      28.285  13.045  44.526  0.00  0.00     0.149 C 
ATOM     15  C17 LG1 d5015      27.727  11.739  43.969  0.00  0.00     0.084 C 
ATOM     16  C18 LG1 d5015      27.770  10.649  45.069  0.00  0.00     0.022 C 
ATOM     17  O2  LG1 d5015      27.864  14.127  44.079  0.00  0.00    -0.293 OA
ATOM     18  C19 LG1 d5015      31.009  11.934  46.953  0.00  0.00     0.035 C 
ATOM     19  C20 LG1 d5015      30.797  11.059  48.204  0.00  0.00     0.010 C 
ATOM     20  C21 LG1 d5015      30.160   9.749  44.696  0.00  0.00     0.020 C 
ENDROOT
BRANCH   4  21
ATOM     21  C7  LG1 d5015      29.312   5.390  50.605  0.00  0.00     0.128 C 
ATOM     22  O1  LG1 d5015      28.406   4.795  50.063  0.00  0.00    -0.298 OA
ATOM     23  C8  LG1 d5015      30.292   4.657  51.455  0.00  0.00     0.091 C 
ENDBRANCH   4  21
TORSDOF 1
ENDMDL
MODEL 4
REMARK VINA RESULT:    -6.651      1.612      6.952
REMARK INTER + INTRA:          -7.241
REMARK INTER:                  -7.037
REMARK INTRA:                  -0.204
REMARK UNBOUND:                -0.201
REMARK  1 active torsions:
REMARK  status: ('A' for Active; 'I' for Inactive)
REMARK    1  A    between atoms: C7_7  and  C4_4 
ROOT
ATOM      1  C1  LG1 d5015      28.800  11.543  46.991  0.00  0.00    -0.004 C 
ATOM      2  C2  LG1 d5015      27.547  11.628  46.112  0.00  0.00    -0.001 C 
ATOM      3  C3  LG1 d5015      26.268  11.027  46.806  0.00  0.00    -0.030 C 
ATOM      4  C4  LG1 d5015      25.220  11.358  45.691  0.00  0.00     0.063 C 
ATOM      5  C5  LG1 d5015      25.622  12.781  45.166  0.00  0.00     0.013 C 
ATOM      6  C6  LG1 d5015      27.100  13.032  45.638  0.00  0.00     0.006 C 
ATOM      7  C9  LG1 d5015      25.876  11.764  48.135  0.00  0.00     0.016 C 
ATOM      8  C10 LG1 d5015      26.570   9.528  47.024  0.00  0.00     0.011 C 
ATOM      9  C11 LG1 d5015      27.843   9.332  47.893  0.00  0.00     0.007 C 
ATOM     10  C12 LG1 d5015      29.084  10.032  47.282  0.00  0.00     0.002 C 
ATOM     11  C13 LG1 d5015      30.366   9.810  48.166  0.00  0.00    -0.016 C 
ATOM     12  C14 LG1 d5015      31.582  10.566  47.491  0.00  0.00    -0.068 C 
ATOM     13  C15 LG1 d5015      32.772  10.024  47.307  0.00  0.00     0.053 C 
ATOM     14  C16 LG1 d5015      33.100   8.708  47.833  0.00  0.00     0.149 C 
ATOM     15  C17 LG1 d5015      32.094   7.959  48.701  0.00  0.00     0.084 C 
ATOM     16  C18 LG1 d5015      30.657   8.287  48.226  0.00  0.00     0.022 C 
ATOM     17  O2  LG1 d5015      34.226   8.216  47.642  0.00  0.00    -0.293 OA
ATOM     18  C19 LG1 d5015      31.344  11.990  46.998  0.00  0.00     0.035 C 
ATOM     19  C20 LG1 d5015      30.016  12.129  46.229  0.00  0.00     0.010 C 
ATOM     20  C21 LG1 d5015      30.216  10.417  49.614  0.00  0.00     0.020 C 
ENDROOT
BRANCH   4  21
ATOM     21  C7  LG1 d5015      23.751  11.212  46.121  0.00  0.00     0.128 C 
ATOM     22  O1  LG1 d5015      23.298  10.118  46.382  0.00  0.00    -0.298 OA
ATOM     23  C8  LG1 d5015      22.892  12.425  46.221  0.00  0.00     0.091 C 
ENDBRANCH   4  21
TORSDOF 1
ENDMDL
MODEL 5
REMARK VINA RESULT:    -6.542      2.069      3.500
REMARK INTER + INTRA:          -7.125
REMARK INTER:                  -6.924
REMARK INTRA:                  -0.201
REMARK UNBOUND:                -0.201
REMARK  1 active torsions:
REMARK  status: ('A' for Active; 'I' for Inactive)
REMARK    1  A    between atoms: C7_7  and  C4_4 
ROOT
ATOM      1  C1  LG1 d5015      27.088  11.397  47.810  0.00  0.00    -0.004 C 
ATOM      2  C2  LG1 d5015      28.243  10.548  48.351  0.00  0.00    -0.001 C 
ATOM      3  C3  LG1 d5015      29.208  10.031  47.220  0.00  0.00    -0.030 C 
ATOM      4  C4  LG1 d5015      30.263   9.310  48.125  0.00  0.00     0.063 C 
ATOM      5  C5  LG1 d5015      30.433  10.244  49.374  0.00  0.00     0.013 C 
ATOM      6  C6  LG1 d5015      29.188  11.204  49.388  0.00  0.00     0.006 C 
ATOM      7  C9  LG1 d5015      29.903  11.186  46.417  0.00  0.00     0.016 C 
ATOM      8  C10 LG1 d5015      28.352   9.112  46.321  0.00  0.00     0.011 C 
ATOM      9  C11 LG1 d5015      27.134   9.879  45.733  0.00  0.00     0.007 C 
ATOM     10  C12 LG1 d5015      26.246  10.504  46.840  0.00  0.00     0.002 C 
ATOM     11  C13 LG1 d5015      25.010  11.262  46.228  0.00  0.00    -0.016 C 
ATOM     12  C14 LG1 d5015      24.165  11.887  47.412  0.00  0.00    -0.068 C 
ATOM     13  C15 LG1 d5015      22.852  11.783  47.509  0.00  0.00     0.053 C 
ATOM     14  C16 LG1 d5015      22.053  11.182  46.452  0.00  0.00     0.149 C 
ATOM     15  C17 LG1 d5015      22.715  10.741  45.150  0.00  0.00     0.084 C 
ATOM     16  C18 LG1 d5015      24.149  10.235  45.446  0.00  0.00     0.022 C 
ATOM     17  O2  LG1 d5015      20.818  11.091  46.570  0.00  0.00    -0.293 OA
ATOM     18  C19 LG1 d5015      24.924  12.619  48.514  0.00  0.00     0.035 C 
ATOM     19  C20 LG1 d5015      26.173  11.845  48.977  0.00  0.00     0.010 C 
ATOM     20  C21 LG1 d5015      25.436  12.467  45.304  0.00  0.00     0.020 C 
ENDROOT
BRANCH   4  21
ATOM     21  C7  LG1 d5015      31.572   8.928  47.414  0.00  0.00     0.128 C 
ATOM     22  O1  LG1 d5015      31.578   8.050  46.578  0.00  0.00    -0.298 OA
ATOM     23  C8  LG1 d5015      32.829   9.651  47.754  0.00  0.00     0.091 C 
ENDBRANCH   4  21
TORSDOF 1
ENDMDL
