REMARK INTER + INTRA:          -6.340
REMARK INTER:                  -6.313
REMARK INTRA:                  -0.027
REMARK UNBOUND:                -0.160
REMARK  1 active torsions:
REMARK  status: ('A' for Active; 'I' for Inactive)
REMARK    1  A    between atoms: C10_13  and  C11_14 
ROOT
ATOM      1  C1  LG1 d5015      28.396  10.197  47.358  0.00  0.00     0.018 C 
ATOM      2  C2  LG1 d5015      28.329   8.781  47.798  0.00  0.00     0.193 C 
ATOM      3  C3  LG1 d5015      29.169   8.464  48.972  0.00  0.00     0.049 A 
ATOM      4  C4  LG1 d5015      29.282   7.145  49.417  0.00  0.00     0.037 A 
ATOM      5  C5  LG1 d5015      30.029   6.864  50.561  0.00  0.00     0.012 A 
ATOM      6  C6  LG1 d5015      30.653   7.894  51.266  0.00  0.00     0.022 A 
ATOM      7  C7  LG1 d5015      30.537   9.212  50.822  0.00  0.00     0.039 A 
ATOM      8  C8  LG1 d5015      29.810   9.497  49.667  0.00  0.00     0.083 A 
ATOM      9  O1  LG1 d5015      29.722  10.814  49.298  0.00  0.00    -0.346 OA
ATOM     10  C9  LG1 d5015      29.543  10.994  47.889  0.00  0.00     0.218 C 
ATOM     11 BR1  LG1 d5015      30.211   5.076  51.152  0.00  0.00    -0.051 Br
ATOM     12  O2  LG1 d5015      27.642   7.932  47.249  0.00  0.00    -0.287 OA
ATOM     13  C10 LG1 d5015      27.460  10.673  46.529  0.00  0.00     0.025 C 
ENDROOT
BRANCH  13  14
ATOM     14  C11 LG1 d5015      27.418  12.017  46.036  0.00  0.00    -0.029 A 
ATOM     15  C14 LG1 d5015      26.425  12.908  46.378  0.00  0.00     0.061 A 
ATOM     16  S1  LG1 d5015      26.648  14.434  45.635  0.00  0.00    -0.113 SA
ATOM     17  C13 LG1 d5015      28.074  13.906  44.851  0.00  0.00     0.050 A 
ATOM     18  C12 LG1 d5015      28.374  12.596  45.151  0.00  0.00     0.019 A 
ENDBRANCH  13  14
TORSDOF 1
ENDMDL
