REMARK INTER + INTRA:          -7.660
REMARK INTER:                  -7.129
REMARK INTRA:                  -0.531
REMARK UNBOUND:                -0.501
REMARK  2 active torsions:
REMARK  status: ('A' for Active; 'I' for Inactive)
REMARK    1  A    between atoms: C1_1  and  N1_15 
REMARK    2  A    between atoms: C7_9  and  C4_4 
ROOT
ATOM      1  C1  LG1 d5015      28.780   9.975  48.448  0.00  0.00     0.141 A 
ATOM      2  C2  LG1 d5015      29.562  10.492  49.481  0.00  0.00     0.187 A 
ATOM      3  C3  LG1 d5015      30.230   9.629  50.349  0.00  0.00     0.175 A 
ATOM      4  C4  LG1 d5015      30.115   8.249  50.186  0.00  0.00     0.131 A 
ATOM      5  C5  LG1 d5015      29.332   7.731  49.154  0.00  0.00     0.175 A 
ATOM      6  C6  LG1 d5015      28.665   8.594  48.285  0.00  0.00     0.187 A 
ATOM      7  F1  LG1 d5015      27.916   8.082  47.298  0.00  0.00    -0.200 F 
ATOM      8  F2  LG1 d5015      29.216   6.405  48.990  0.00  0.00    -0.202 F 
ATOM      9  F6  LG1 d5015      30.980  10.137  51.338  0.00  0.00    -0.202 F 
ATOM     10  F7  LG1 d5015      29.681  11.817  49.649  0.00  0.00    -0.200 F 
ENDROOT
BRANCH   1  11
ATOM     11  N1  LG1 d5015      28.117  10.830  47.586  0.00  0.00    -0.232 N 
ATOM     12  N2  LG1 d5015      26.887  11.273  47.901  0.00  0.00    -0.172 NA
ATOM     13  C10 LG1 d5015      26.572  12.052  46.864  0.00  0.00     0.053 A 
ATOM     14  C9  LG1 d5015      27.591  12.107  45.894  0.00  0.00     0.055 A 
ATOM     15  C11 LG1 d5015      25.269  12.740  46.835  0.00  0.00     0.072 C 
ATOM     16  C8  LG1 d5015      28.584  11.300  46.395  0.00  0.00     0.035 A 
ATOM     17  C12 LG1 d5015      29.907  10.953  45.842  0.00  0.00     0.070 C 
ENDBRANCH   1  11
BRANCH   4  18
ATOM     18  C7  LG1 d5015      30.829   7.326  51.116  0.00  0.00     0.423 C 
ATOM     19  F4  LG1 d5015      30.295   6.070  51.157  0.00  0.00    -0.166 F 
ATOM     20  F3  LG1 d5015      30.835   7.754  52.413  0.00  0.00    -0.166 F 
ATOM     21  F5  LG1 d5015      32.141   7.156  50.781  0.00  0.00    -0.166 F 
ENDBRANCH   4  18
TORSDOF 2
ENDMDL
