REMARK INTER + INTRA:          -5.624
REMARK INTER:                  -5.455
REMARK INTRA:                  -0.169
REMARK UNBOUND:                -0.169
REMARK  1 active torsions:
REMARK  status: ('A' for Active; 'I' for Inactive)
REMARK    1  A    between atoms: C10_13  and  C11_14 
ROOT
ATOM      1  C1  LG1 d5015      27.417  10.387  47.096  0.00  0.00     0.018 C 
ATOM      2  C2  LG1 d5015      28.432   9.385  47.507  0.00  0.00     0.193 C 
ATOM      3  C3  LG1 d5015      29.832   9.827  47.337  0.00  0.00     0.049 A 
ATOM      4  C4  LG1 d5015      30.881   8.938  47.581  0.00  0.00     0.037 A 
ATOM      5  C5  LG1 d5015      32.201   9.381  47.477  0.00  0.00     0.012 A 
ATOM      6  C6  LG1 d5015      32.473  10.708  47.142  0.00  0.00     0.022 A 
ATOM      7  C7  LG1 d5015      31.423  11.597  46.903  0.00  0.00     0.039 A 
ATOM      8  C8  LG1 d5015      30.103  11.154  46.983  0.00  0.00     0.083 A 
ATOM      9  O1  LG1 d5015      29.123  12.083  46.753  0.00  0.00    -0.346 OA
ATOM     10  C9  LG1 d5015      27.913  11.511  46.245  0.00  0.00     0.218 C 
ATOM     11 BR1  LG1 d5015      33.627   8.175  47.775  0.00  0.00    -0.051 Br
ATOM     12  O2  LG1 d5015      28.154   8.280  47.949  0.00  0.00    -0.287 OA
ATOM     13  C10 LG1 d5015      26.147  10.236  47.492  0.00  0.00     0.025 C 
ENDROOT
BRANCH  13  14
ATOM     14  C11 LG1 d5015      25.081  11.134  47.162  0.00  0.00    -0.029 A 
ATOM     15  C14 LG1 d5015      24.261  10.952  46.072  0.00  0.00     0.061 A 
ATOM     16  S1  LG1 d5015      23.082  12.186  45.942  0.00  0.00    -0.113 SA
ATOM     17  C13 LG1 d5015      23.668  12.970  47.346  0.00  0.00     0.050 A 
ATOM     18  C12 LG1 d5015      24.738  12.304  47.901  0.00  0.00     0.019 A 
ENDBRANCH  13  14
TORSDOF 1
ENDMDL
