REMARK INTER + INTRA:          -7.601
REMARK INTER:                  -7.064
REMARK INTRA:                  -0.537
REMARK UNBOUND:                -0.501
REMARK  2 active torsions:
REMARK  status: ('A' for Active; 'I' for Inactive)
REMARK    1  A    between atoms: C1_1  and  N1_15 
REMARK    2  A    between atoms: C7_9  and  C4_4 
ROOT
ATOM      1  C1  LG1 d5015      30.407  10.556  47.603  0.00  0.00     0.141 A 
ATOM      2  C2  LG1 d5015      31.655  10.040  47.252  0.00  0.00     0.187 A 
ATOM      3  C3  LG1 d5015      32.475   9.474  48.228  0.00  0.00     0.175 A 
ATOM      4  C4  LG1 d5015      32.048   9.423  49.554  0.00  0.00     0.131 A 
ATOM      5  C5  LG1 d5015      30.801   9.939  49.906  0.00  0.00     0.175 A 
ATOM      6  C6  LG1 d5015      29.981  10.505  48.930  0.00  0.00     0.187 A 
ATOM      7  F1  LG1 d5015      28.785  10.997  49.283  0.00  0.00    -0.200 F 
ATOM      8  F2  LG1 d5015      30.383   9.895  51.179  0.00  0.00    -0.202 F 
ATOM      9  F6  LG1 d5015      33.673   8.980  47.879  0.00  0.00    -0.202 F 
ATOM     10  F7  LG1 d5015      32.078  10.082  45.980  0.00  0.00    -0.200 F 
ENDROOT
BRANCH   1  11
ATOM     11  N1  LG1 d5015      29.594  11.118  46.637  0.00  0.00    -0.232 N 
ATOM     12  N2  LG1 d5015      29.778  12.398  46.271  0.00  0.00    -0.172 NA
ATOM     13  C10 LG1 d5015      28.835  12.588  45.345  0.00  0.00     0.053 A 
ATOM     14  C9  LG1 d5015      28.054  11.438  45.121  0.00  0.00     0.055 A 
ATOM     15  C11 LG1 d5015      28.710  13.900  44.686  0.00  0.00     0.072 C 
ATOM     16  C8  LG1 d5015      28.574  10.499  45.977  0.00  0.00     0.035 A 
ATOM     17  C12 LG1 d5015      28.186   9.094  46.209  0.00  0.00     0.070 C 
ENDBRANCH   1  11
BRANCH   4  18
ATOM     18  C7  LG1 d5015      32.927   8.817  50.598  0.00  0.00     0.423 C 
ATOM     19  F4  LG1 d5015      34.121   8.368  50.113  0.00  0.00    -0.166 F 
ATOM     20  F3  LG1 d5015      32.368   7.740  51.225  0.00  0.00    -0.166 F 
ATOM     21  F5  LG1 d5015      33.243   9.697  51.592  0.00  0.00    -0.166 F 
ENDBRANCH   4  18
TORSDOF 2
ENDMDL
