REMARK INTER + INTRA:          -5.898
REMARK INTER:                  -5.733
REMARK INTRA:                  -0.165
REMARK UNBOUND:                -0.165
REMARK  1 active torsions:
REMARK  status: ('A' for Active; 'I' for Inactive)
REMARK    1  A    between atoms: C10_13  and  C11_14 
ROOT
ATOM      1  C1  LG1 d5015      27.626  10.498  47.999  0.00  0.00     0.018 C 
ATOM      2  C2  LG1 d5015      28.818  10.715  48.857  0.00  0.00     0.193 C 
ATOM      3  C3  LG1 d5015      29.879   9.698  48.697  0.00  0.00     0.049 A 
ATOM      4  C4  LG1 d5015      31.003   9.723  49.526  0.00  0.00     0.037 A 
ATOM      5  C5  LG1 d5015      32.028   8.797  49.328  0.00  0.00     0.012 A 
ATOM      6  C6  LG1 d5015      31.937   7.855  48.303  0.00  0.00     0.022 A 
ATOM      7  C7  LG1 d5015      30.815   7.833  47.473  0.00  0.00     0.039 A 
ATOM      8  C8  LG1 d5015      29.778   8.743  47.679  0.00  0.00     0.083 A 
ATOM      9  O1  LG1 d5015      28.715   8.676  46.817  0.00  0.00    -0.346 OA
ATOM     10  C9  LG1 d5015      27.490   9.138  47.397  0.00  0.00     0.218 C 
ATOM     11 BR1  LG1 d5015      33.538   8.806  50.467  0.00  0.00    -0.051 Br
ATOM     12  O2  LG1 d5015      28.931  11.648  49.637  0.00  0.00    -0.287 OA
ATOM     13  C10 LG1 d5015      26.756  11.500  47.818  0.00  0.00     0.025 C 
ENDROOT
BRANCH  13  14
ATOM     14  C11 LG1 d5015      25.573  11.414  47.015  0.00  0.00    -0.029 A 
ATOM     15  C14 LG1 d5015      25.545  11.768  45.685  0.00  0.00     0.061 A 
ATOM     16  S1  LG1 d5015      23.993  11.554  44.996  0.00  0.00    -0.113 SA
ATOM     17  C13 LG1 d5015      23.353  10.985  46.478  0.00  0.00     0.050 A 
ATOM     18  C12 LG1 d5015      24.303  10.959  47.474  0.00  0.00     0.019 A 
ENDBRANCH  13  14
TORSDOF 1
ENDMDL
