REMARK INTER + INTRA:          -5.836
REMARK INTER:                  -5.711
REMARK INTRA:                  -0.124
REMARK UNBOUND:                -0.124
REMARK  1 active torsions:
REMARK  status: ('A' for Active; 'I' for Inactive)
REMARK    1  A    between atoms: C10_13  and  C11_14 
ROOT
ATOM      1  C1  LG1 d5015      27.656  10.728  48.182  0.00  0.00     0.018 C 
ATOM      2  C2  LG1 d5015      28.995  10.706  48.822  0.00  0.00     0.193 C 
ATOM      3  C3  LG1 d5015      29.900   9.654  48.313  0.00  0.00     0.049 A 
ATOM      4  C4  LG1 d5015      31.147   9.454  48.909  0.00  0.00     0.037 A 
ATOM      5  C5  LG1 d5015      32.019   8.500  48.383  0.00  0.00     0.012 A 
ATOM      6  C6  LG1 d5015      31.654   7.755  47.261  0.00  0.00     0.022 A 
ATOM      7  C7  LG1 d5015      30.409   7.958  46.664  0.00  0.00     0.039 A 
ATOM      8  C8  LG1 d5015      29.524   8.895  47.198  0.00  0.00     0.083 A 
ATOM      9  O1  LG1 d5015      28.326   9.055  46.553  0.00  0.00    -0.346 OA
ATOM     10  C9  LG1 d5015      27.276   9.503  47.416  0.00  0.00     0.218 C 
ATOM     11 BR1  LG1 d5015      33.697   8.203  49.204  0.00  0.00    -0.051 Br
ATOM     12  O2  LG1 d5015      29.340  11.483  49.701  0.00  0.00    -0.287 OA
ATOM     13  C10 LG1 d5015      26.878  11.808  48.323  0.00  0.00     0.025 C 
ENDROOT
BRANCH  13  14
ATOM     14  C11 LG1 d5015      25.572  11.948  47.754  0.00  0.00    -0.029 A 
ATOM     15  C14 LG1 d5015      25.363  12.299  46.438  0.00  0.00     0.061 A 
ATOM     16  S1  LG1 d5015      23.696  12.385  46.054  0.00  0.00    -0.113 SA
ATOM     17  C13 LG1 d5015      23.250  11.951  47.648  0.00  0.00     0.050 A 
ATOM     18  C12 LG1 d5015      24.347  11.746  48.455  0.00  0.00     0.019 A 
ENDBRANCH  13  14
TORSDOF 1
ENDMDL
