REMARK INTER + INTRA:          -6.158
REMARK INTER:                  -6.006
REMARK INTRA:                  -0.152
REMARK UNBOUND:                -0.124
REMARK  1 active torsions:
REMARK  status: ('A' for Active; 'I' for Inactive)
REMARK    1  A    between atoms: C10_13  and  C11_14 
ROOT
ATOM      1  C1  LG1 d5015      28.545  10.101  48.070  0.00  0.00     0.018 C 
ATOM      2  C2  LG1 d5015      29.331   8.845  47.979  0.00  0.00     0.193 C 
ATOM      3  C3  LG1 d5015      30.433   8.740  48.958  0.00  0.00     0.049 A 
ATOM      4  C4  LG1 d5015      31.317   7.661  48.905  0.00  0.00     0.037 A 
ATOM      5  C5  LG1 d5015      32.317   7.538  49.871  0.00  0.00     0.012 A 
ATOM      6  C6  LG1 d5015      32.429   8.482  50.892  0.00  0.00     0.022 A 
ATOM      7  C7  LG1 d5015      31.542   9.559  50.946  0.00  0.00     0.039 A 
ATOM      8  C8  LG1 d5015      30.555   9.699  49.971  0.00  0.00     0.083 A 
ATOM      9  O1  LG1 d5015      29.708  10.769  50.095  0.00  0.00    -0.346 OA
ATOM     10  C9  LG1 d5015      29.175  11.213  48.843  0.00  0.00     0.218 C 
ATOM     11 BR1  LG1 d5015      33.537   6.095  49.786  0.00  0.00    -0.051 Br
ATOM     12  O2  LG1 d5015      29.104   7.960  47.167  0.00  0.00    -0.287 OA
ATOM     13  C10 LG1 d5015      27.351  10.174  47.469  0.00  0.00     0.025 C 
ENDROOT
BRANCH  13  14
ATOM     14  C11 LG1 d5015      26.502  11.327  47.486  0.00  0.00    -0.029 A 
ATOM     15  C14 LG1 d5015      26.424  12.214  46.436  0.00  0.00     0.061 A 
ATOM     16  S1  LG1 d5015      25.323  13.487  46.752  0.00  0.00    -0.113 SA
ATOM     17  C13 LG1 d5015      24.948  12.854  48.297  0.00  0.00     0.050 A 
ATOM     18  C12 LG1 d5015      25.646  11.697  48.565  0.00  0.00     0.019 A 
ENDBRANCH  13  14
TORSDOF 1
ENDMDL
