REMARK INTER + INTRA:          -6.098
REMARK INTER:                  -5.929
REMARK INTRA:                  -0.169
REMARK UNBOUND:                -0.169
REMARK  1 active torsions:
REMARK  status: ('A' for Active; 'I' for Inactive)
REMARK    1  A    between atoms: C10_13  and  C11_14 
ROOT
ATOM      1  C1  LG1 d5015      30.140   9.735  48.753  0.00  0.00     0.018 C 
ATOM      2  C2  LG1 d5015      29.135  10.801  48.990  0.00  0.00     0.193 C 
ATOM      3  C3  LG1 d5015      27.893  10.657  48.202  0.00  0.00     0.049 A 
ATOM      4  C4  LG1 d5015      26.915  11.653  48.248  0.00  0.00     0.037 A 
ATOM      5  C5  LG1 d5015      25.720  11.481  47.548  0.00  0.00     0.012 A 
ATOM      6  C6  LG1 d5015      25.496  10.316  46.813  0.00  0.00     0.022 A 
ATOM      7  C7  LG1 d5015      26.473   9.320  46.770  0.00  0.00     0.039 A 
ATOM      8  C8  LG1 d5015      27.679   9.496  47.450  0.00  0.00     0.083 A 
ATOM      9  O1  LG1 d5015      28.586   8.472  47.379  0.00  0.00    -0.346 OA
ATOM     10  C9  LG1 d5015      29.941   8.908  47.525  0.00  0.00     0.218 C 
ATOM     11 BR1  LG1 d5015      24.403  12.839  47.582  0.00  0.00    -0.051 Br
ATOM     12  O2  LG1 d5015      29.301  11.730  49.768  0.00  0.00    -0.287 OA
ATOM     13  C10 LG1 d5015      31.147   9.577  49.621  0.00  0.00     0.025 C 
ENDROOT
BRANCH  13  14
ATOM     14  C11 LG1 d5015      32.175   8.587  49.502  0.00  0.00    -0.029 A 
ATOM     15  C14 LG1 d5015      32.077   7.336  50.068  0.00  0.00     0.061 A 
ATOM     16  S1  LG1 d5015      33.459   6.378  49.750  0.00  0.00    -0.113 SA
ATOM     17  C13 LG1 d5015      34.194   7.636  48.852  0.00  0.00     0.050 A 
ATOM     18  C12 LG1 d5015      33.401   8.761  48.797  0.00  0.00     0.019 A 
ENDBRANCH  13  14
TORSDOF 1
ENDMDL
