REMARK INTER + INTRA:          -6.161
REMARK INTER:                  -5.993
REMARK INTRA:                  -0.168
REMARK UNBOUND:                -0.160
REMARK  1 active torsions:
REMARK  status: ('A' for Active; 'I' for Inactive)
REMARK    1  A    between atoms: C10_13  and  C11_14 
ROOT
ATOM      1  C1  LG1 d5015      28.261  10.173  47.006  0.00  0.00     0.018 C 
ATOM      2  C2  LG1 d5015      26.889  10.127  46.440  0.00  0.00     0.193 C 
ATOM      3  C3  LG1 d5015      25.870  10.830  47.248  0.00  0.00     0.049 A 
ATOM      4  C4  LG1 d5015      24.523  10.767  46.885  0.00  0.00     0.037 A 
ATOM      5  C5  LG1 d5015      23.575  11.482  47.618  0.00  0.00     0.012 A 
ATOM      6  C6  LG1 d5015      23.970  12.267  48.702  0.00  0.00     0.022 A 
ATOM      7  C7  LG1 d5015      25.317  12.333  49.062  0.00  0.00     0.039 A 
ATOM      8  C8  LG1 d5015      26.266  11.602  48.347  0.00  0.00     0.083 A 
ATOM      9  O1  LG1 d5015      27.572  11.726  48.743  0.00  0.00    -0.346 OA
ATOM     10  C9  LG1 d5015      28.364  10.572  48.442  0.00  0.00     0.218 C 
ATOM     11 BR1  LG1 d5015      21.746  11.376  47.151  0.00  0.00    -0.051 Br
ATOM     12  O2  LG1 d5015      26.605   9.559  45.396  0.00  0.00    -0.287 OA
ATOM     13  C10 LG1 d5015      29.303   9.860  46.227  0.00  0.00     0.025 C 
ENDROOT
BRANCH  13  14
ATOM     14  C11 LG1 d5015      30.670   9.868  46.656  0.00  0.00    -0.029 A 
ATOM     15  C14 LG1 d5015      31.311   8.746  47.132  0.00  0.00     0.061 A 
ATOM     16  S1  LG1 d5015      32.935   9.070  47.564  0.00  0.00    -0.113 SA
ATOM     17  C13 LG1 d5015      32.785  10.714  47.116  0.00  0.00     0.050 A 
ATOM     18  C12 LG1 d5015      31.524  11.009  46.647  0.00  0.00     0.019 A 
ENDBRANCH  13  14
TORSDOF 1
ENDMDL
