MODEL 1
REMARK VINA RESULT:    -4.860      0.000      0.000
REMARK INTER + INTRA:          -5.350
REMARK INTER:                  -5.150
REMARK INTRA:                  -0.200
REMARK UNBOUND:                -0.206
REMARK  1 active torsions:
REMARK  status: ('A' for Active; 'I' for Inactive)
REMARK    1  A    between atoms: C1_1  and  N1_10 
ROOT
ATOM      1  C1  LG1 d5015      28.455   9.629  47.598  0.00  0.00     0.056 A 
ATOM      2  C2  LG1 d5015      27.897   8.431  47.154  0.00  0.00    -0.033 A 
ATOM      3  C3  LG1 d5015      28.067   7.264  47.900  0.00  0.00     0.028 A 
ATOM      4  C4  LG1 d5015      28.795   7.295  49.088  0.00  0.00     0.012 A 
ATOM      5  C5  LG1 d5015      29.355   8.495  49.532  0.00  0.00     0.028 A 
ATOM      6  C6  LG1 d5015      29.184   9.660  48.787  0.00  0.00    -0.033 A 
ATOM      7  C7  LG1 d5015      29.795  10.930  49.288  0.00  0.00     0.050 C 
ATOM      8 BR1  LG1 d5015      29.028   5.714  50.097  0.00  0.00    -0.051 Br
ATOM      9  C8  LG1 d5015      27.110   8.366  45.886  0.00  0.00     0.050 C 
ENDROOT
BRANCH   1  10
ATOM     10  N1  LG1 d5015      28.278  10.831  46.832  0.00  0.00    -0.265 N 
ATOM     11  C11 LG1 d5015      27.174  11.675  46.945  0.00  0.00     0.148 C 
ATOM     12  S2  LG1 d5015      25.936  11.697  48.075  0.00  0.00    -0.052 SA
ATOM     13  S1  LG1 d5015      27.264  12.923  45.708  0.00  0.00    -0.090 SA
ATOM     14  C10 LG1 d5015      28.938  12.500  45.228  0.00  0.00     0.185 C 
ATOM     15  C9  LG1 d5015      29.255  11.192  45.893  0.00  0.00     0.239 C 
ATOM     16  O1  LG1 d5015      30.262  10.560  45.584  0.00  0.00    -0.272 OA
ENDBRANCH   1  10
TORSDOF 1
ENDMDL
MODEL 2
REMARK VINA RESULT:    -4.859      4.077      5.686
REMARK INTER + INTRA:          -5.349
REMARK INTER:                  -5.168
REMARK INTRA:                  -0.181
REMARK UNBOUND:                -0.206
REMARK  1 active torsions:
REMARK  status: ('A' for Active; 'I' for Inactive)
REMARK    1  A    between atoms: C1_1  and  N1_10 
ROOT
ATOM      1  C1  LG1 d5015      29.161   8.509  48.522  0.00  0.00     0.056 A 
ATOM      2  C2  LG1 d5015      29.333   9.773  49.085  0.00  0.00    -0.033 A 
ATOM      3  C3  LG1 d5015      28.493  10.823  48.710  0.00  0.00     0.028 A 
ATOM      4  C4  LG1 d5015      27.483  10.609  47.774  0.00  0.00     0.012 A 
ATOM      5  C5  LG1 d5015      27.311   9.343  47.210  0.00  0.00     0.028 A 
ATOM      6  C6  LG1 d5015      28.150   8.295  47.584  0.00  0.00    -0.033 A 
ATOM      7  C7  LG1 d5015      27.942   6.951  46.963  0.00  0.00     0.050 C 
ATOM      8 BR1  LG1 d5015      26.347  12.032  47.266  0.00  0.00    -0.051 Br
ATOM      9  C8  LG1 d5015      30.405  10.034  50.092  0.00  0.00     0.050 C 
ENDROOT
BRANCH   1  10
ATOM     10  N1  LG1 d5015      30.023   7.428  48.908  0.00  0.00    -0.265 N 
ATOM     11  C11 LG1 d5015      31.244   7.145  48.296  0.00  0.00     0.148 C 
ATOM     12  S2  LG1 d5015      32.134   8.035  47.190  0.00  0.00    -0.052 SA
ATOM     13  S1  LG1 d5015      31.889   5.642  48.946  0.00  0.00    -0.090 SA
ATOM     14  C10 LG1 d5015      30.672   5.544  50.258  0.00  0.00     0.185 C 
ATOM     15  C9  LG1 d5015      29.628   6.578  49.951  0.00  0.00     0.239 C 
ATOM     16  O1  LG1 d5015      28.569   6.602  50.573  0.00  0.00    -0.272 OA
ENDBRANCH   1  10
TORSDOF 1
ENDMDL
MODEL 3
REMARK VINA RESULT:    -4.854      0.021      2.152
REMARK INTER + INTRA:          -5.344
REMARK INTER:                  -5.148
REMARK INTRA:                  -0.196
REMARK UNBOUND:                -0.206
REMARK  1 active torsions:
REMARK  status: ('A' for Active; 'I' for Inactive)
REMARK    1  A    between atoms: C1_1  and  N1_10 
ROOT
ATOM      1  C1  LG1 d5015      28.447   9.633  47.588  0.00  0.00     0.056 A 
ATOM      2  C2  LG1 d5015      29.177   9.660  48.776  0.00  0.00    -0.033 A 
ATOM      3  C3  LG1 d5015      29.341   8.490  49.519  0.00  0.00     0.028 A 
ATOM      4  C4  LG1 d5015      28.774   7.296  49.075  0.00  0.00     0.012 A 
ATOM      5  C5  LG1 d5015      28.042   7.270  47.886  0.00  0.00     0.028 A 
ATOM      6  C6  LG1 d5015      27.880   8.439  47.144  0.00  0.00    -0.033 A 
ATOM      7  C7  LG1 d5015      27.092   8.380  45.876  0.00  0.00     0.050 C 
ATOM      8 BR1  LG1 d5015      28.994   5.713  50.084  0.00  0.00    -0.051 Br
ATOM      9  C8  LG1 d5015      29.798  10.924  49.277  0.00  0.00     0.050 C 
ENDROOT
BRANCH   1  10
ATOM     10  N1  LG1 d5015      28.280  10.836  46.822  0.00  0.00    -0.265 N 
ATOM     11  C11 LG1 d5015      27.180  11.687  46.931  0.00  0.00     0.148 C 
ATOM     12  S2  LG1 d5015      25.940  11.716  48.057  0.00  0.00    -0.052 SA
ATOM     13  S1  LG1 d5015      27.281  12.935  45.694  0.00  0.00    -0.090 SA
ATOM     14  C10 LG1 d5015      28.955  12.501  45.219  0.00  0.00     0.185 C 
ATOM     15  C9  LG1 d5015      29.262  11.191  45.885  0.00  0.00     0.239 C 
ATOM     16  O1  LG1 d5015      30.266  10.554  45.579  0.00  0.00    -0.272 OA
ENDBRANCH   1  10
TORSDOF 1
ENDMDL
MODEL 4
REMARK VINA RESULT:    -4.853      4.068      5.256
REMARK INTER + INTRA:          -5.343
REMARK INTER:                  -5.165
REMARK INTRA:                  -0.178
REMARK UNBOUND:                -0.206
REMARK  1 active torsions:
REMARK  status: ('A' for Active; 'I' for Inactive)
REMARK    1  A    between atoms: C1_1  and  N1_10 
ROOT
ATOM      1  C1  LG1 d5015      29.156   8.536  48.520  0.00  0.00     0.056 A 
ATOM      2  C2  LG1 d5015      28.149   8.312  47.582  0.00  0.00    -0.033 A 
ATOM      3  C3  LG1 d5015      27.305   9.357  47.202  0.00  0.00     0.028 A 
ATOM      4  C4  LG1 d5015      27.468  10.624  47.761  0.00  0.00     0.012 A 
ATOM      5  C5  LG1 d5015      28.476  10.847  48.702  0.00  0.00     0.028 A 
ATOM      6  C6  LG1 d5015      29.318   9.803  49.080  0.00  0.00    -0.033 A 
ATOM      7  C7  LG1 d5015      30.388  10.073  50.089  0.00  0.00     0.050 C 
ATOM      8 BR1  LG1 d5015      26.324  12.038  47.248  0.00  0.00    -0.051 Br
ATOM      9  C8  LG1 d5015      27.951   6.966  46.964  0.00  0.00     0.050 C 
ENDROOT
BRANCH   1  10
ATOM     10  N1  LG1 d5015      30.025   7.462  48.911  0.00  0.00    -0.265 N 
ATOM     11  C11 LG1 d5015      31.250   7.187  48.302  0.00  0.00     0.148 C 
ATOM     12  S2  LG1 d5015      32.136   8.080  47.196  0.00  0.00    -0.052 SA
ATOM     13  S1  LG1 d5015      31.903   5.690  48.956  0.00  0.00    -0.090 SA
ATOM     14  C10 LG1 d5015      30.684   5.585  50.266  0.00  0.00     0.185 C 
ATOM     15  C9  LG1 d5015      29.634   6.612  49.954  0.00  0.00     0.239 C 
ATOM     16  O1  LG1 d5015      28.573   6.629  50.574  0.00  0.00    -0.272 OA
ENDBRANCH   1  10
TORSDOF 1
ENDMDL
MODEL 5
REMARK VINA RESULT:    -4.778      3.479      4.282
REMARK INTER + INTRA:          -5.263
REMARK INTER:                  -5.057
REMARK INTRA:                  -0.206
REMARK UNBOUND:                -0.206
REMARK  1 active torsions:
REMARK  status: ('A' for Active; 'I' for Inactive)
REMARK    1  A    between atoms: C1_1  and  N1_10 
ROOT
ATOM      1  C1  LG1 d5015      31.215   8.714  48.849  0.00  0.00     0.056 A 
ATOM      2  C2  LG1 d5015      31.181   7.676  49.780  0.00  0.00    -0.033 A 
ATOM      3  C3  LG1 d5015      32.368   7.061  50.180  0.00  0.00     0.028 A 
ATOM      4  C4  LG1 d5015      33.587   7.484  49.651  0.00  0.00     0.012 A 
ATOM      5  C5  LG1 d5015      33.619   8.523  48.718  0.00  0.00     0.028 A 
ATOM      6  C6  LG1 d5015      32.434   9.137  48.319  0.00  0.00    -0.033 A 
ATOM      7  C7  LG1 d5015      32.501  10.246  47.319  0.00  0.00     0.050 C 
ATOM      8 BR1  LG1 d5015      35.194   6.649  50.193  0.00  0.00    -0.051 Br
ATOM      9  C8  LG1 d5015      29.891   7.202  50.366  0.00  0.00     0.050 C 
ENDROOT
BRANCH   1  10
ATOM     10  N1  LG1 d5015      29.994   9.349  48.437  0.00  0.00    -0.265 N 
ATOM     11  C11 LG1 d5015      29.252   8.966  47.320  0.00  0.00     0.148 C 
ATOM     12  S2  LG1 d5015      29.391   7.617  46.336  0.00  0.00    -0.052 SA
ATOM     13  S1  LG1 d5015      27.938  10.110  47.071  0.00  0.00    -0.090 SA
ATOM     14  C10 LG1 d5015      28.195  10.936  48.642  0.00  0.00     0.185 C 
ATOM     15  C9  LG1 d5015      29.505  10.434  49.178  0.00  0.00     0.239 C 
ATOM     16  O1  LG1 d5015      30.033  10.976  50.146  0.00  0.00    -0.272 OA
ENDBRANCH   1  10
TORSDOF 1
ENDMDL
