REMARK INTER + INTRA:          -5.294
REMARK INTER:                  -5.093
REMARK INTRA:                  -0.201
REMARK UNBOUND:                -0.201
REMARK  1 active torsions:
REMARK  status: ('A' for Active; 'I' for Inactive)
REMARK    1  A    between atoms: C1_1  and  N1_10 
ROOT
ATOM      1  C1  LG1 d5015      30.817   8.952  48.790  0.00  0.00     0.056 A 
ATOM      2  C2  LG1 d5015      32.007   9.312  48.157  0.00  0.00    -0.033 A 
ATOM      3  C3  LG1 d5015      33.213   8.742  48.566  0.00  0.00     0.028 A 
ATOM      4  C4  LG1 d5015      33.230   7.813  49.605  0.00  0.00     0.012 A 
ATOM      5  C5  LG1 d5015      32.039   7.454  50.239  0.00  0.00     0.028 A 
ATOM      6  C6  LG1 d5015      30.834   8.023  49.831  0.00  0.00    -0.033 A 
ATOM      7  C7  LG1 d5015      29.575   7.619  50.528  0.00  0.00     0.050 C 
ATOM      8 BR1  LG1 d5015      34.865   7.043  50.159  0.00  0.00    -0.051 Br
ATOM      9  C8  LG1 d5015      32.020  10.303  47.039  0.00  0.00     0.050 C 
ENDROOT
BRANCH   1  10
ATOM     10  N1  LG1 d5015      29.575   9.537  48.369  0.00  0.00    -0.265 N 
ATOM     11  C11 LG1 d5015      28.753   8.999  47.379  0.00  0.00     0.148 C 
ATOM     12  S2  LG1 d5015      28.813   7.511  46.610  0.00  0.00    -0.052 SA
ATOM     13  S1  LG1 d5015      27.432  10.114  47.047  0.00  0.00    -0.090 SA
ATOM     14  C10 LG1 d5015      27.807  11.169  48.447  0.00  0.00     0.185 C 
ATOM     15  C9  LG1 d5015      29.147  10.732  48.963  0.00  0.00     0.239 C 
ATOM     16  O1  LG1 d5015      29.747  11.408  49.796  0.00  0.00    -0.272 OA
ENDBRANCH   1  10
TORSDOF 1
ENDMDL
