REMARK INTER + INTRA:          -5.340
REMARK INTER:                  -5.145
REMARK INTRA:                  -0.196
REMARK UNBOUND:                -0.208
REMARK  1 active torsions:
REMARK  status: ('A' for Active; 'I' for Inactive)
REMARK    1  A    between atoms: C1_1  and  N1_10 
ROOT
ATOM      1  C1  LG1 d5015      28.456   9.635  47.585  0.00  0.00     0.056 A 
ATOM      2  C2  LG1 d5015      27.906   8.428  47.153  0.00  0.00    -0.033 A 
ATOM      3  C3  LG1 d5015      28.078   7.272  47.915  0.00  0.00     0.028 A 
ATOM      4  C4  LG1 d5015      28.798   7.323  49.108  0.00  0.00     0.012 A 
ATOM      5  C5  LG1 d5015      29.349   8.531  49.539  0.00  0.00     0.028 A 
ATOM      6  C6  LG1 d5015      29.177   9.686  48.777  0.00  0.00    -0.033 A 
ATOM      7  C7  LG1 d5015      29.779  10.965  49.265  0.00  0.00     0.050 C 
ATOM      8 BR1  LG1 d5015      29.032   5.756  50.139  0.00  0.00    -0.051 Br
ATOM      9  C8  LG1 d5015      27.127   8.342  45.881  0.00  0.00     0.050 C 
ENDROOT
BRANCH   1  10
ATOM     10  N1  LG1 d5015      28.278  10.825  46.801  0.00  0.00    -0.265 N 
ATOM     11  C11 LG1 d5015      27.167  11.664  46.893  0.00  0.00     0.148 C 
ATOM     12  S2  LG1 d5015      25.920  11.691  48.012  0.00  0.00    -0.052 SA
ATOM     13  S1  LG1 d5015      27.260  12.896  45.641  0.00  0.00    -0.090 SA
ATOM     14  C10 LG1 d5015      28.941  12.477  45.181  0.00  0.00     0.185 C 
ATOM     15  C9  LG1 d5015      29.260  11.180  45.866  0.00  0.00     0.239 C 
ATOM     16  O1  LG1 d5015      30.275  10.552  45.575  0.00  0.00    -0.272 OA
ENDBRANCH   1  10
TORSDOF 1
ENDMDL
