REMARK INTER + INTRA:          -5.341
REMARK INTER:                  -5.163
REMARK INTRA:                  -0.178
REMARK UNBOUND:                -0.205
REMARK  1 active torsions:
REMARK  status: ('A' for Active; 'I' for Inactive)
REMARK    1  A    between atoms: C1_1  and  N1_10 
ROOT
ATOM      1  C1  LG1 d5015      29.148   8.505  48.529  0.00  0.00     0.056 A 
ATOM      2  C2  LG1 d5015      28.127   8.310  47.599  0.00  0.00    -0.033 A 
ATOM      3  C3  LG1 d5015      27.300   9.374  47.238  0.00  0.00     0.028 A 
ATOM      4  C4  LG1 d5015      27.493  10.632  47.808  0.00  0.00     0.012 A 
ATOM      5  C5  LG1 d5015      28.514  10.827  48.740  0.00  0.00     0.028 A 
ATOM      6  C6  LG1 d5015      29.340   9.763  49.099  0.00  0.00    -0.033 A 
ATOM      7  C7  LG1 d5015      30.425  10.003  50.099  0.00  0.00     0.050 C 
ATOM      8 BR1  LG1 d5015      26.370  12.073  47.320  0.00  0.00    -0.051 Br
ATOM      9  C8  LG1 d5015      27.897   6.974  46.970  0.00  0.00     0.050 C 
ENDROOT
BRANCH   1  10
ATOM     10  N1  LG1 d5015      30.000   7.411  48.899  0.00  0.00    -0.265 N 
ATOM     11  C11 LG1 d5015      31.214   7.120  48.276  0.00  0.00     0.148 C 
ATOM     12  S2  LG1 d5015      32.107   8.009  47.171  0.00  0.00    -0.052 SA
ATOM     13  S1  LG1 d5015      31.846   5.603  48.908  0.00  0.00    -0.090 SA
ATOM     14  C10 LG1 d5015      30.637   5.507  50.227  0.00  0.00     0.185 C 
ATOM     15  C9  LG1 d5015      29.603   6.556  49.937  0.00  0.00     0.239 C 
ATOM     16  O1  LG1 d5015      28.549   6.587  50.566  0.00  0.00    -0.272 OA
ENDBRANCH   1  10
TORSDOF 1
ENDMDL
