REMARK INTER + INTRA:          -7.157
REMARK INTER:                  -6.637
REMARK INTRA:                  -0.520
REMARK UNBOUND:                -0.501
REMARK  2 active torsions:
REMARK  status: ('A' for Active; 'I' for Inactive)
REMARK    1  A    between atoms: C1_1  and  N1_15 
REMARK    2  A    between atoms: C7_9  and  C4_4 
ROOT
ATOM      1  C1  LG1 d5015      30.318  10.237  47.364  0.00  0.00     0.141 A 
ATOM      2  C2  LG1 d5015      29.485   9.634  48.308  0.00  0.00     0.187 A 
ATOM      3  C3  LG1 d5015      30.037   9.005  49.424  0.00  0.00     0.175 A 
ATOM      4  C4  LG1 d5015      31.420   8.978  49.597  0.00  0.00     0.131 A 
ATOM      5  C5  LG1 d5015      32.253   9.580  48.654  0.00  0.00     0.175 A 
ATOM      6  C6  LG1 d5015      31.701  10.209  47.538  0.00  0.00     0.187 A 
ATOM      7  F1  LG1 d5015      32.514  10.783  46.640  0.00  0.00    -0.200 F 
ATOM      8  F2  LG1 d5015      33.585   9.559  48.812  0.00  0.00    -0.202 F 
ATOM      9  F6  LG1 d5015      29.227   8.429  50.325  0.00  0.00    -0.202 F 
ATOM     10  F7  LG1 d5015      28.153   9.652  48.154  0.00  0.00    -0.200 F 
ENDROOT
BRANCH   1  11
ATOM     11  N1  LG1 d5015      29.772  10.860  46.257  0.00  0.00    -0.232 N 
ATOM     12  N2  LG1 d5015      29.402  12.150  46.331  0.00  0.00    -0.172 NA
ATOM     13  C10 LG1 d5015      28.931  12.400  45.108  0.00  0.00     0.053 A 
ATOM     14  C9  LG1 d5015      28.998  11.280  44.258  0.00  0.00     0.055 A 
ATOM     15  C11 LG1 d5015      28.419  13.743  44.782  0.00  0.00     0.072 C 
ATOM     16  C8  LG1 d5015      29.551  10.292  45.037  0.00  0.00     0.035 A 
ATOM     17  C12 LG1 d5015      29.877   8.889  44.717  0.00  0.00     0.070 C 
ENDBRANCH   1  11
BRANCH   4  18
ATOM     18  C7  LG1 d5015      32.010   8.305  50.791  0.00  0.00     0.423 C 
ATOM     19  F4  LG1 d5015      32.556   7.084  50.516  0.00  0.00    -0.166 F 
ATOM     20  F3  LG1 d5015      31.107   8.075  51.789  0.00  0.00    -0.166 F 
ATOM     21  F5  LG1 d5015      33.011   9.034  51.364  0.00  0.00    -0.166 F 
ENDBRANCH   4  18
TORSDOF 2
ENDMDL
