MODEL 1
REMARK VINA RESULT:    -4.866      0.000      0.000
REMARK INTER + INTRA:          -5.358
REMARK INTER:                  -5.186
REMARK INTRA:                  -0.173
REMARK UNBOUND:                -0.208
REMARK  1 active torsions:
REMARK  status: ('A' for Active; 'I' for Inactive)
REMARK    1  A    between atoms: C1_1  and  N1_10 
ROOT
ATOM      1  C1  LG1 d5015      29.119   8.535  48.569  0.00  0.00     0.056 A 
ATOM      2  C2  LG1 d5015      28.100   8.331  47.638  0.00  0.00    -0.033 A 
ATOM      3  C3  LG1 d5015      27.280   9.395  47.259  0.00  0.00     0.028 A 
ATOM      4  C4  LG1 d5015      27.479  10.660  47.809  0.00  0.00     0.012 A 
ATOM      5  C5  LG1 d5015      28.498  10.863  48.742  0.00  0.00     0.028 A 
ATOM      6  C6  LG1 d5015      29.317   9.801  49.120  0.00  0.00    -0.033 A 
ATOM      7  C7  LG1 d5015      30.400  10.049  50.120  0.00  0.00     0.050 C 
ATOM      8 BR1  LG1 d5015      26.366  12.100  47.296  0.00  0.00    -0.051 Br
ATOM      9  C8  LG1 d5015      27.864   6.987  47.030  0.00  0.00     0.050 C 
ENDROOT
BRANCH   1  10
ATOM     10  N1  LG1 d5015      29.964   7.441  48.959  0.00  0.00    -0.265 N 
ATOM     11  C11 LG1 d5015      31.181   7.138  48.349  0.00  0.00     0.148 C 
ATOM     12  S2  LG1 d5015      32.085   8.010  47.241  0.00  0.00    -0.052 SA
ATOM     13  S1  LG1 d5015      31.801   5.626  49.004  0.00  0.00    -0.090 SA
ATOM     14  C10 LG1 d5015      30.581   5.551  50.315  0.00  0.00     0.185 C 
ATOM     15  C9  LG1 d5015      29.554   6.601  50.004  0.00  0.00     0.239 C 
ATOM     16  O1  LG1 d5015      28.495   6.644  50.624  0.00  0.00    -0.272 OA
ENDBRANCH   1  10
TORSDOF 1
ENDMDL
MODEL 2
REMARK VINA RESULT:    -4.863      4.070      5.688
REMARK INTER + INTRA:          -5.356
REMARK INTER:                  -5.177
REMARK INTRA:                  -0.179
REMARK UNBOUND:                -0.208
REMARK  1 active torsions:
REMARK  status: ('A' for Active; 'I' for Inactive)
REMARK    1  A    between atoms: C1_1  and  N1_10 
ROOT
ATOM      1  C1  LG1 d5015      28.444   9.618  47.625  0.00  0.00     0.056 A 
ATOM      2  C2  LG1 d5015      29.198   9.657  48.797  0.00  0.00    -0.033 A 
ATOM      3  C3  LG1 d5015      29.382   8.493  49.546  0.00  0.00     0.028 A 
ATOM      4  C4  LG1 d5015      28.813   7.293  49.121  0.00  0.00     0.012 A 
ATOM      5  C5  LG1 d5015      28.058   7.255  47.947  0.00  0.00     0.028 A 
ATOM      6  C6  LG1 d5015      27.874   8.418  47.201  0.00  0.00    -0.033 A 
ATOM      7  C7  LG1 d5015      27.061   8.346  45.948  0.00  0.00     0.050 C 
ATOM      8 BR1  LG1 d5015      29.062   5.718  50.137  0.00  0.00    -0.051 Br
ATOM      9  C8  LG1 d5015      29.821  10.927  49.277  0.00  0.00     0.050 C 
ENDROOT
BRANCH   1  10
ATOM     10  N1  LG1 d5015      28.255  10.815  46.853  0.00  0.00    -0.265 N 
ATOM     11  C11 LG1 d5015      27.136  11.642  46.954  0.00  0.00     0.148 C 
ATOM     12  S2  LG1 d5015      25.890  11.646  48.073  0.00  0.00    -0.052 SA
ATOM     13  S1  LG1 d5015      27.218  12.888  45.714  0.00  0.00    -0.090 SA
ATOM     14  C10 LG1 d5015      28.902  12.489  45.249  0.00  0.00     0.185 C 
ATOM     15  C9  LG1 d5015      29.234  11.188  45.921  0.00  0.00     0.239 C 
ATOM     16  O1  LG1 d5015      30.254  10.572  45.623  0.00  0.00    -0.272 OA
ENDBRANCH   1  10
TORSDOF 1
ENDMDL
MODEL 3
REMARK VINA RESULT:    -4.853      0.083      2.153
REMARK INTER + INTRA:          -5.345
REMARK INTER:                  -5.167
REMARK INTRA:                  -0.178
REMARK UNBOUND:                -0.208
REMARK  1 active torsions:
REMARK  status: ('A' for Active; 'I' for Inactive)
REMARK    1  A    between atoms: C1_1  and  N1_10 
ROOT
ATOM      1  C1  LG1 d5015      29.154   8.491  48.514  0.00  0.00     0.056 A 
ATOM      2  C2  LG1 d5015      29.335   9.752  49.082  0.00  0.00    -0.033 A 
ATOM      3  C3  LG1 d5015      28.506  10.810  48.708  0.00  0.00     0.028 A 
ATOM      4  C4  LG1 d5015      27.496  10.608  47.768  0.00  0.00     0.012 A 
ATOM      5  C5  LG1 d5015      27.316   9.345  47.199  0.00  0.00     0.028 A 
ATOM      6  C6  LG1 d5015      28.145   8.289  47.573  0.00  0.00    -0.033 A 
ATOM      7  C7  LG1 d5015      27.927   6.949  46.947  0.00  0.00     0.050 C 
ATOM      8 BR1  LG1 d5015      26.374  12.042  47.260  0.00  0.00    -0.051 Br
ATOM      9  C8  LG1 d5015      30.406  10.000  50.093  0.00  0.00     0.050 C 
ENDROOT
BRANCH   1  10
ATOM     10  N1  LG1 d5015      30.006   7.402  48.899  0.00  0.00    -0.265 N 
ATOM     11  C11 LG1 d5015      31.228   7.111  48.292  0.00  0.00     0.148 C 
ATOM     12  S2  LG1 d5015      32.128   7.998  47.192  0.00  0.00    -0.052 SA
ATOM     13  S1  LG1 d5015      31.857   5.600  48.938  0.00  0.00    -0.090 SA
ATOM     14  C10 LG1 d5015      30.634   5.507  50.245  0.00  0.00     0.185 C 
ATOM     15  C9  LG1 d5015      29.600   6.551  49.937  0.00  0.00     0.239 C 
ATOM     16  O1  LG1 d5015      28.539   6.582  50.555  0.00  0.00    -0.272 OA
ENDBRANCH   1  10
TORSDOF 1
ENDMDL
MODEL 4
REMARK VINA RESULT:    -4.849      4.076      5.273
REMARK INTER + INTRA:          -5.340
REMARK INTER:                  -5.145
REMARK INTRA:                  -0.196
REMARK UNBOUND:                -0.208
REMARK  1 active torsions:
REMARK  status: ('A' for Active; 'I' for Inactive)
REMARK    1  A    between atoms: C1_1  and  N1_10 
ROOT
ATOM      1  C1  LG1 d5015      28.456   9.635  47.585  0.00  0.00     0.056 A 
ATOM      2  C2  LG1 d5015      27.906   8.428  47.153  0.00  0.00    -0.033 A 
ATOM      3  C3  LG1 d5015      28.078   7.272  47.915  0.00  0.00     0.028 A 
ATOM      4  C4  LG1 d5015      28.798   7.323  49.108  0.00  0.00     0.012 A 
ATOM      5  C5  LG1 d5015      29.349   8.531  49.539  0.00  0.00     0.028 A 
ATOM      6  C6  LG1 d5015      29.177   9.686  48.777  0.00  0.00    -0.033 A 
ATOM      7  C7  LG1 d5015      29.779  10.965  49.265  0.00  0.00     0.050 C 
ATOM      8 BR1  LG1 d5015      29.032   5.756  50.139  0.00  0.00    -0.051 Br
ATOM      9  C8  LG1 d5015      27.127   8.342  45.881  0.00  0.00     0.050 C 
ENDROOT
BRANCH   1  10
ATOM     10  N1  LG1 d5015      28.278  10.825  46.801  0.00  0.00    -0.265 N 
ATOM     11  C11 LG1 d5015      27.167  11.664  46.893  0.00  0.00     0.148 C 
ATOM     12  S2  LG1 d5015      25.920  11.691  48.012  0.00  0.00    -0.052 SA
ATOM     13  S1  LG1 d5015      27.260  12.896  45.641  0.00  0.00    -0.090 SA
ATOM     14  C10 LG1 d5015      28.941  12.477  45.181  0.00  0.00     0.185 C 
ATOM     15  C9  LG1 d5015      29.260  11.180  45.866  0.00  0.00     0.239 C 
ATOM     16  O1  LG1 d5015      30.275  10.552  45.575  0.00  0.00    -0.272 OA
ENDBRANCH   1  10
TORSDOF 1
ENDMDL
MODEL 5
REMARK VINA RESULT:    -4.789      3.287      4.719
REMARK INTER + INTRA:          -5.277
REMARK INTER:                  -5.069
REMARK INTRA:                  -0.208
REMARK UNBOUND:                -0.208
REMARK  1 active torsions:
REMARK  status: ('A' for Active; 'I' for Inactive)
REMARK    1  A    between atoms: C1_1  and  N1_10 
ROOT
ATOM      1  C1  LG1 d5015      28.703   9.224  47.744  0.00  0.00     0.056 A 
ATOM      2  C2  LG1 d5015      28.204   7.984  47.345  0.00  0.00    -0.033 A 
ATOM      3  C3  LG1 d5015      28.387   6.865  48.157  0.00  0.00     0.028 A 
ATOM      4  C4  LG1 d5015      29.068   6.985  49.368  0.00  0.00     0.012 A 
ATOM      5  C5  LG1 d5015      29.568   8.226  49.768  0.00  0.00     0.028 A 
ATOM      6  C6  LG1 d5015      29.385   9.344  48.955  0.00  0.00    -0.033 A 
ATOM      7  C7  LG1 d5015      29.931  10.659  49.409  0.00  0.00     0.050 C 
ATOM      8 BR1  LG1 d5015      29.317   5.467  50.468  0.00  0.00    -0.051 Br
ATOM      9  C8  LG1 d5015      27.469   7.824  46.054  0.00  0.00     0.050 C 
ENDROOT
BRANCH   1  10
ATOM     10  N1  LG1 d5015      28.514  10.376  46.909  0.00  0.00    -0.265 N 
ATOM     11  C11 LG1 d5015      29.424  10.798  45.940  0.00  0.00     0.148 C 
ATOM     12  S2  LG1 d5015      30.781  10.033  45.322  0.00  0.00    -0.052 SA
ATOM     13  S1  LG1 d5015      28.899  12.342  45.277  0.00  0.00    -0.090 SA
ATOM     14  C10 LG1 d5015      27.298  12.281  46.080  0.00  0.00     0.185 C 
ATOM     15  C9  LG1 d5015      27.358  11.154  47.070  0.00  0.00     0.239 C 
ATOM     16  O1  LG1 d5015      26.469  11.006  47.904  0.00  0.00    -0.272 OA
ENDBRANCH   1  10
TORSDOF 1
ENDMDL
