REMARK INTER + INTRA:          -6.150
REMARK INTER:                  -5.983
REMARK INTRA:                  -0.166
REMARK UNBOUND:                -0.165
REMARK  1 active torsions:
REMARK  status: ('A' for Active; 'I' for Inactive)
REMARK    1  A    between atoms: C10_13  and  C11_14 
ROOT
ATOM      1  C1  LG1 d5015      28.227  10.128  47.054  0.00  0.00     0.018 C 
ATOM      2  C2  LG1 d5015      26.847  10.038  46.516  0.00  0.00     0.193 C 
ATOM      3  C3  LG1 d5015      25.833  10.767  47.306  0.00  0.00     0.049 A 
ATOM      4  C4  LG1 d5015      24.481  10.670  46.970  0.00  0.00     0.037 A 
ATOM      5  C5  LG1 d5015      23.537  11.410  47.684  0.00  0.00     0.012 A 
ATOM      6  C6  LG1 d5015      23.940  12.251  48.722  0.00  0.00     0.022 A 
ATOM      7  C7  LG1 d5015      25.292  12.350  49.054  0.00  0.00     0.039 A 
ATOM      8  C8  LG1 d5015      26.238  11.597  48.359  0.00  0.00     0.083 A 
ATOM      9  O1  LG1 d5015      27.548  11.756  48.725  0.00  0.00    -0.346 OA
ATOM     10  C9  LG1 d5015      28.350  10.598  48.467  0.00  0.00     0.218 C 
ATOM     11 BR1  LG1 d5015      21.701  11.259  47.255  0.00  0.00    -0.051 Br
ATOM     12  O2  LG1 d5015      26.552   9.416  45.505  0.00  0.00    -0.287 OA
ATOM     13  C10 LG1 d5015      29.261   9.789  46.273  0.00  0.00     0.025 C 
ENDROOT
BRANCH  13  14
ATOM     14  C11 LG1 d5015      30.634   9.835  46.678  0.00  0.00    -0.029 A 
ATOM     15  C14 LG1 d5015      31.313   8.732  47.141  0.00  0.00     0.061 A 
ATOM     16  S1  LG1 d5015      32.936   9.099  47.544  0.00  0.00    -0.113 SA
ATOM     17  C13 LG1 d5015      32.734  10.739  47.099  0.00  0.00     0.050 A 
ATOM     18  C12 LG1 d5015      31.457  10.998  46.653  0.00  0.00     0.019 A 
ENDBRANCH  13  14
TORSDOF 1
ENDMDL
