MODEL 1
REMARK VINA RESULT:    -6.410      0.000      0.000
REMARK INTER + INTRA:          -7.660
REMARK INTER:                  -7.129
REMARK INTRA:                  -0.531
REMARK UNBOUND:                -0.501
REMARK  2 active torsions:
REMARK  status: ('A' for Active; 'I' for Inactive)
REMARK    1  A    between atoms: C1_1  and  N1_15 
REMARK    2  A    between atoms: C7_9  and  C4_4 
ROOT
ATOM      1  C1  LG1 d5015      28.780   9.975  48.448  0.00  0.00     0.141 A 
ATOM      2  C2  LG1 d5015      29.562  10.492  49.481  0.00  0.00     0.187 A 
ATOM      3  C3  LG1 d5015      30.230   9.629  50.349  0.00  0.00     0.175 A 
ATOM      4  C4  LG1 d5015      30.115   8.249  50.186  0.00  0.00     0.131 A 
ATOM      5  C5  LG1 d5015      29.332   7.731  49.154  0.00  0.00     0.175 A 
ATOM      6  C6  LG1 d5015      28.665   8.594  48.285  0.00  0.00     0.187 A 
ATOM      7  F1  LG1 d5015      27.916   8.082  47.298  0.00  0.00    -0.200 F 
ATOM      8  F2  LG1 d5015      29.216   6.405  48.990  0.00  0.00    -0.202 F 
ATOM      9  F6  LG1 d5015      30.980  10.137  51.338  0.00  0.00    -0.202 F 
ATOM     10  F7  LG1 d5015      29.681  11.817  49.649  0.00  0.00    -0.200 F 
ENDROOT
BRANCH   1  11
ATOM     11  N1  LG1 d5015      28.117  10.830  47.586  0.00  0.00    -0.232 N 
ATOM     12  N2  LG1 d5015      26.887  11.273  47.901  0.00  0.00    -0.172 NA
ATOM     13  C10 LG1 d5015      26.572  12.052  46.864  0.00  0.00     0.053 A 
ATOM     14  C9  LG1 d5015      27.591  12.107  45.894  0.00  0.00     0.055 A 
ATOM     15  C11 LG1 d5015      25.269  12.740  46.835  0.00  0.00     0.072 C 
ATOM     16  C8  LG1 d5015      28.584  11.300  46.395  0.00  0.00     0.035 A 
ATOM     17  C12 LG1 d5015      29.907  10.953  45.842  0.00  0.00     0.070 C 
ENDBRANCH   1  11
BRANCH   4  18
ATOM     18  C7  LG1 d5015      30.829   7.326  51.116  0.00  0.00     0.423 C 
ATOM     19  F4  LG1 d5015      30.295   6.070  51.157  0.00  0.00    -0.166 F 
ATOM     20  F3  LG1 d5015      30.835   7.754  52.413  0.00  0.00    -0.166 F 
ATOM     21  F5  LG1 d5015      32.141   7.156  50.781  0.00  0.00    -0.166 F 
ENDBRANCH   4  18
TORSDOF 2
ENDMDL
MODEL 2
REMARK VINA RESULT:    -6.407      0.096      2.327
REMARK INTER + INTRA:          -7.658
REMARK INTER:                  -7.127
REMARK INTRA:                  -0.531
REMARK UNBOUND:                -0.501
REMARK  2 active torsions:
REMARK  status: ('A' for Active; 'I' for Inactive)
REMARK    1  A    between atoms: C1_1  and  N1_15 
REMARK    2  A    between atoms: C7_9  and  C4_4 
ROOT
ATOM      1  C1  LG1 d5015      28.756   9.994  48.452  0.00  0.00     0.141 A 
ATOM      2  C2  LG1 d5015      28.586   8.618  48.293  0.00  0.00     0.187 A 
ATOM      3  C3  LG1 d5015      29.248   7.732  49.142  0.00  0.00     0.175 A 
ATOM      4  C4  LG1 d5015      30.080   8.219  50.149  0.00  0.00     0.131 A 
ATOM      5  C5  LG1 d5015      30.250   9.594  50.308  0.00  0.00     0.175 A 
ATOM      6  C6  LG1 d5015      29.588  10.481  49.460  0.00  0.00     0.187 A 
ATOM      7  F1  LG1 d5015      29.761  11.800  49.625  0.00  0.00    -0.200 F 
ATOM      8  F2  LG1 d5015      31.048  10.072  51.274  0.00  0.00    -0.202 F 
ATOM      9  F6  LG1 d5015      29.077   6.411  48.980  0.00  0.00    -0.202 F 
ATOM     10  F7  LG1 d5015      27.789   8.136  47.328  0.00  0.00    -0.200 F 
ENDROOT
BRANCH   1  11
ATOM     11  N1  LG1 d5015      28.100  10.874  47.611  0.00  0.00    -0.232 N 
ATOM     12  N2  LG1 d5015      26.878  11.327  47.939  0.00  0.00    -0.172 NA
ATOM     13  C10 LG1 d5015      26.569  12.131  46.919  0.00  0.00     0.053 A 
ATOM     14  C9  LG1 d5015      27.585  12.191  45.946  0.00  0.00     0.055 A 
ATOM     15  C11 LG1 d5015      25.275  12.836  46.909  0.00  0.00     0.072 C 
ATOM     16  C8  LG1 d5015      28.568  11.361  46.426  0.00  0.00     0.035 A 
ATOM     17  C12 LG1 d5015      29.885  11.007  45.861  0.00  0.00     0.070 C 
ENDBRANCH   1  11
BRANCH   4  18
ATOM     18  C7  LG1 d5015      30.788   7.270  51.056  0.00  0.00     0.423 C 
ATOM     19  F4  LG1 d5015      30.197   6.041  51.131  0.00  0.00    -0.166 F 
ATOM     20  F3  LG1 d5015      30.870   7.705  52.348  0.00  0.00    -0.166 F 
ATOM     21  F5  LG1 d5015      32.075   7.034  50.668  0.00  0.00    -0.166 F 
ENDBRANCH   4  18
TORSDOF 2
ENDMDL
MODEL 3
REMARK VINA RESULT:    -6.356      2.247      3.129
REMARK INTER + INTRA:          -7.601
REMARK INTER:                  -7.064
REMARK INTRA:                  -0.537
REMARK UNBOUND:                -0.501
REMARK  2 active torsions:
REMARK  status: ('A' for Active; 'I' for Inactive)
REMARK    1  A    between atoms: C1_1  and  N1_15 
REMARK    2  A    between atoms: C7_9  and  C4_4 
ROOT
ATOM      1  C1  LG1 d5015      30.407  10.556  47.603  0.00  0.00     0.141 A 
ATOM      2  C2  LG1 d5015      31.655  10.040  47.252  0.00  0.00     0.187 A 
ATOM      3  C3  LG1 d5015      32.475   9.474  48.228  0.00  0.00     0.175 A 
ATOM      4  C4  LG1 d5015      32.048   9.423  49.554  0.00  0.00     0.131 A 
ATOM      5  C5  LG1 d5015      30.801   9.939  49.906  0.00  0.00     0.175 A 
ATOM      6  C6  LG1 d5015      29.981  10.505  48.930  0.00  0.00     0.187 A 
ATOM      7  F1  LG1 d5015      28.785  10.997  49.283  0.00  0.00    -0.200 F 
ATOM      8  F2  LG1 d5015      30.383   9.895  51.179  0.00  0.00    -0.202 F 
ATOM      9  F6  LG1 d5015      33.673   8.980  47.879  0.00  0.00    -0.202 F 
ATOM     10  F7  LG1 d5015      32.078  10.082  45.980  0.00  0.00    -0.200 F 
ENDROOT
BRANCH   1  11
ATOM     11  N1  LG1 d5015      29.594  11.118  46.637  0.00  0.00    -0.232 N 
ATOM     12  N2  LG1 d5015      29.778  12.398  46.271  0.00  0.00    -0.172 NA
ATOM     13  C10 LG1 d5015      28.835  12.588  45.345  0.00  0.00     0.053 A 
ATOM     14  C9  LG1 d5015      28.054  11.438  45.121  0.00  0.00     0.055 A 
ATOM     15  C11 LG1 d5015      28.710  13.900  44.686  0.00  0.00     0.072 C 
ATOM     16  C8  LG1 d5015      28.574  10.499  45.977  0.00  0.00     0.035 A 
ATOM     17  C12 LG1 d5015      28.186   9.094  46.209  0.00  0.00     0.070 C 
ENDBRANCH   1  11
BRANCH   4  18
ATOM     18  C7  LG1 d5015      32.927   8.817  50.598  0.00  0.00     0.423 C 
ATOM     19  F4  LG1 d5015      34.121   8.368  50.113  0.00  0.00    -0.166 F 
ATOM     20  F3  LG1 d5015      32.368   7.740  51.225  0.00  0.00    -0.166 F 
ATOM     21  F5  LG1 d5015      33.243   9.697  51.592  0.00  0.00    -0.166 F 
ENDBRANCH   4  18
TORSDOF 2
ENDMDL
MODEL 4
REMARK VINA RESULT:    -5.959      2.121      2.888
REMARK INTER + INTRA:          -7.157
REMARK INTER:                  -6.637
REMARK INTRA:                  -0.520
REMARK UNBOUND:                -0.501
REMARK  2 active torsions:
REMARK  status: ('A' for Active; 'I' for Inactive)
REMARK    1  A    between atoms: C1_1  and  N1_15 
REMARK    2  A    between atoms: C7_9  and  C4_4 
ROOT
ATOM      1  C1  LG1 d5015      30.318  10.237  47.364  0.00  0.00     0.141 A 
ATOM      2  C2  LG1 d5015      29.485   9.634  48.308  0.00  0.00     0.187 A 
ATOM      3  C3  LG1 d5015      30.037   9.005  49.424  0.00  0.00     0.175 A 
ATOM      4  C4  LG1 d5015      31.420   8.978  49.597  0.00  0.00     0.131 A 
ATOM      5  C5  LG1 d5015      32.253   9.580  48.654  0.00  0.00     0.175 A 
ATOM      6  C6  LG1 d5015      31.701  10.209  47.538  0.00  0.00     0.187 A 
ATOM      7  F1  LG1 d5015      32.514  10.783  46.640  0.00  0.00    -0.200 F 
ATOM      8  F2  LG1 d5015      33.585   9.559  48.812  0.00  0.00    -0.202 F 
ATOM      9  F6  LG1 d5015      29.227   8.429  50.325  0.00  0.00    -0.202 F 
ATOM     10  F7  LG1 d5015      28.153   9.652  48.154  0.00  0.00    -0.200 F 
ENDROOT
BRANCH   1  11
ATOM     11  N1  LG1 d5015      29.772  10.860  46.257  0.00  0.00    -0.232 N 
ATOM     12  N2  LG1 d5015      29.402  12.150  46.331  0.00  0.00    -0.172 NA
ATOM     13  C10 LG1 d5015      28.931  12.400  45.108  0.00  0.00     0.053 A 
ATOM     14  C9  LG1 d5015      28.998  11.280  44.258  0.00  0.00     0.055 A 
ATOM     15  C11 LG1 d5015      28.419  13.743  44.782  0.00  0.00     0.072 C 
ATOM     16  C8  LG1 d5015      29.551  10.292  45.037  0.00  0.00     0.035 A 
ATOM     17  C12 LG1 d5015      29.877   8.889  44.717  0.00  0.00     0.070 C 
ENDBRANCH   1  11
BRANCH   4  18
ATOM     18  C7  LG1 d5015      32.010   8.305  50.791  0.00  0.00     0.423 C 
ATOM     19  F4  LG1 d5015      32.556   7.084  50.516  0.00  0.00    -0.166 F 
ATOM     20  F3  LG1 d5015      31.107   8.075  51.789  0.00  0.00    -0.166 F 
ATOM     21  F5  LG1 d5015      33.011   9.034  51.364  0.00  0.00    -0.166 F 
ENDBRANCH   4  18
TORSDOF 2
ENDMDL
MODEL 5
REMARK VINA RESULT:    -5.835      3.539      6.704
REMARK INTER + INTRA:          -7.019
REMARK INTER:                  -6.518
REMARK INTRA:                  -0.501
REMARK UNBOUND:                -0.501
REMARK  2 active torsions:
REMARK  status: ('A' for Active; 'I' for Inactive)
REMARK    1  A    between atoms: C1_1  and  N1_15 
REMARK    2  A    between atoms: C7_9  and  C4_4 
ROOT
ATOM      1  C1  LG1 d5015      27.358  11.314  47.013  0.00  0.00     0.141 A 
ATOM      2  C2  LG1 d5015      26.578  11.630  45.901  0.00  0.00     0.187 A 
ATOM      3  C3  LG1 d5015      25.332  12.232  46.071  0.00  0.00     0.175 A 
ATOM      4  C4  LG1 d5015      24.864  12.518  47.353  0.00  0.00     0.131 A 
ATOM      5  C5  LG1 d5015      25.643  12.201  48.466  0.00  0.00     0.175 A 
ATOM      6  C6  LG1 d5015      26.890  11.600  48.296  0.00  0.00     0.187 A 
ATOM      7  F1  LG1 d5015      27.627  11.301  49.375  0.00  0.00    -0.200 F 
ATOM      8  F2  LG1 d5015      25.201  12.472  49.703  0.00  0.00    -0.202 F 
ATOM      9  F6  LG1 d5015      24.591  12.533  44.994  0.00  0.00    -0.202 F 
ATOM     10  F7  LG1 d5015      27.016  11.361  44.662  0.00  0.00    -0.200 F 
ENDROOT
BRANCH   1  11
ATOM     11  N1  LG1 d5015      28.594  10.716  46.846  0.00  0.00    -0.232 N 
ATOM     12  N2  LG1 d5015      29.710  11.462  46.913  0.00  0.00    -0.172 NA
ATOM     13  C10 LG1 d5015      30.682  10.570  46.707  0.00  0.00     0.053 A 
ATOM     14  C9  LG1 d5015      30.191   9.265  46.510  0.00  0.00     0.055 A 
ATOM     15  C11 LG1 d5015      32.089  11.008  46.708  0.00  0.00     0.072 C 
ATOM     16  C8  LG1 d5015      28.827   9.395  46.606  0.00  0.00     0.035 A 
ATOM     17  C12 LG1 d5015      27.758   8.384  46.493  0.00  0.00     0.070 C 
ENDBRANCH   1  11
BRANCH   4  18
ATOM     18  C7  LG1 d5015      23.530  13.161  47.534  0.00  0.00     0.423 C 
ATOM     19  F4  LG1 d5015      22.888  13.429  46.359  0.00  0.00    -0.166 F 
ATOM     20  F3  LG1 d5015      23.585  14.357  48.191  0.00  0.00    -0.166 F 
ATOM     21  F5  LG1 d5015      22.668  12.387  48.255  0.00  0.00    -0.166 F 
ENDBRANCH   4  18
TORSDOF 2
ENDMDL
