REMARK INTER + INTRA:          -6.054
REMARK INTER:                  -5.885
REMARK INTRA:                  -0.168
REMARK UNBOUND:                -0.160
REMARK  1 active torsions:
REMARK  status: ('A' for Active; 'I' for Inactive)
REMARK    1  A    between atoms: C10_13  and  C11_14 
ROOT
ATOM      1  C1  LG1 d5015      30.127   9.959  48.289  0.00  0.00     0.018 C 
ATOM      2  C2  LG1 d5015      29.131  10.910  48.842  0.00  0.00     0.193 C 
ATOM      3  C3  LG1 d5015      27.795  10.831  48.214  0.00  0.00     0.049 A 
ATOM      4  C4  LG1 d5015      26.801  11.747  48.565  0.00  0.00     0.037 A 
ATOM      5  C5  LG1 d5015      25.525  11.627  48.013  0.00  0.00     0.012 A 
ATOM      6  C6  LG1 d5015      25.238  10.592  47.122  0.00  0.00     0.022 A 
ATOM      7  C7  LG1 d5015      26.231   9.675  46.774  0.00  0.00     0.039 A 
ATOM      8  C8  LG1 d5015      27.515   9.802  47.306  0.00  0.00     0.083 A 
ATOM      9  O1  LG1 d5015      28.436   8.858  46.936  0.00  0.00    -0.346 OA
ATOM     10  C9  LG1 d5015      29.783   9.341  46.973  0.00  0.00     0.218 C 
ATOM     11 BR1  LG1 d5015      24.182  12.882  48.460  0.00  0.00    -0.051 Br
ATOM     12  O2  LG1 d5015      29.375  11.703  49.740  0.00  0.00    -0.287 OA
ATOM     13  C10 LG1 d5015      31.252   9.714  48.973  0.00  0.00     0.025 C 
ENDROOT
BRANCH  13  14
ATOM     14  C11 LG1 d5015      32.284   8.819  48.545  0.00  0.00    -0.029 A 
ATOM     15  C14 LG1 d5015      33.359   9.225  47.786  0.00  0.00     0.061 A 
ATOM     16  S1  LG1 d5015      34.423   7.931  47.434  0.00  0.00    -0.113 SA
ATOM     17  C13 LG1 d5015      33.447   6.822  48.297  0.00  0.00     0.050 A 
ATOM     18  C12 LG1 d5015      32.335   7.426  48.841  0.00  0.00     0.019 A 
ENDBRANCH  13  14
TORSDOF 1
ENDMDL
