REMARK INTER + INTRA:          -5.673
REMARK INTER:                  -5.513
REMARK INTRA:                  -0.160
REMARK UNBOUND:                -0.160
REMARK  1 active torsions:
REMARK  status: ('A' for Active; 'I' for Inactive)
REMARK    1  A    between atoms: C10_13  and  C11_14 
ROOT
ATOM      1  C1  LG1 d5015      29.046   8.842  48.688  0.00  0.00     0.018 C 
ATOM      2  C2  LG1 d5015      28.778  10.295  48.552  0.00  0.00     0.193 C 
ATOM      3  C3  LG1 d5015      27.707  10.632  47.590  0.00  0.00     0.049 A 
ATOM      4  C4  LG1 d5015      27.434  11.967  47.286  0.00  0.00     0.037 A 
ATOM      5  C5  LG1 d5015      26.381  12.279  46.424  0.00  0.00     0.012 A 
ATOM      6  C6  LG1 d5015      25.598  11.263  45.875  0.00  0.00     0.022 A 
ATOM      7  C7  LG1 d5015      25.870   9.929  46.182  0.00  0.00     0.039 A 
ATOM      8  C8  LG1 d5015      26.934   9.610  47.026  0.00  0.00     0.083 A 
ATOM      9  O1  LG1 d5015      27.133   8.283  47.299  0.00  0.00    -0.346 OA
ATOM     10  C9  LG1 d5015      28.495   7.969  47.607  0.00  0.00     0.218 C 
ATOM     11 BR1  LG1 d5015      26.025  14.083  45.983  0.00  0.00    -0.051 Br
ATOM     12  O2  LG1 d5015      29.382  11.158  49.172  0.00  0.00    -0.287 OA
ATOM     13  C10 LG1 d5015      29.750   8.399  49.737  0.00  0.00     0.025 C 
ENDROOT
BRANCH  13  14
ATOM     14  C11 LG1 d5015      30.072   7.025  49.978  0.00  0.00    -0.029 A 
ATOM     15  C14 LG1 d5015      31.289   6.473  49.648  0.00  0.00     0.061 A 
ATOM     16  S1  LG1 d5015      31.375   4.814  50.060  0.00  0.00    -0.113 SA
ATOM     17  C13 LG1 d5015      29.781   4.829  50.681  0.00  0.00     0.050 A 
ATOM     18  C12 LG1 d5015      29.197   6.072  50.577  0.00  0.00     0.019 A 
ENDBRANCH  13  14
TORSDOF 1
ENDMDL
