REMARK INTER + INTRA:          -7.658
REMARK INTER:                  -7.127
REMARK INTRA:                  -0.531
REMARK UNBOUND:                -0.501
REMARK  2 active torsions:
REMARK  status: ('A' for Active; 'I' for Inactive)
REMARK    1  A    between atoms: C1_1  and  N1_15 
REMARK    2  A    between atoms: C7_9  and  C4_4 
ROOT
ATOM      1  C1  LG1 d5015      28.756   9.994  48.452  0.00  0.00     0.141 A 
ATOM      2  C2  LG1 d5015      28.586   8.618  48.293  0.00  0.00     0.187 A 
ATOM      3  C3  LG1 d5015      29.248   7.732  49.142  0.00  0.00     0.175 A 
ATOM      4  C4  LG1 d5015      30.080   8.219  50.149  0.00  0.00     0.131 A 
ATOM      5  C5  LG1 d5015      30.250   9.594  50.308  0.00  0.00     0.175 A 
ATOM      6  C6  LG1 d5015      29.588  10.481  49.460  0.00  0.00     0.187 A 
ATOM      7  F1  LG1 d5015      29.761  11.800  49.625  0.00  0.00    -0.200 F 
ATOM      8  F2  LG1 d5015      31.048  10.072  51.274  0.00  0.00    -0.202 F 
ATOM      9  F6  LG1 d5015      29.077   6.411  48.980  0.00  0.00    -0.202 F 
ATOM     10  F7  LG1 d5015      27.789   8.136  47.328  0.00  0.00    -0.200 F 
ENDROOT
BRANCH   1  11
ATOM     11  N1  LG1 d5015      28.100  10.874  47.611  0.00  0.00    -0.232 N 
ATOM     12  N2  LG1 d5015      26.878  11.327  47.939  0.00  0.00    -0.172 NA
ATOM     13  C10 LG1 d5015      26.569  12.131  46.919  0.00  0.00     0.053 A 
ATOM     14  C9  LG1 d5015      27.585  12.191  45.946  0.00  0.00     0.055 A 
ATOM     15  C11 LG1 d5015      25.275  12.836  46.909  0.00  0.00     0.072 C 
ATOM     16  C8  LG1 d5015      28.568  11.361  46.426  0.00  0.00     0.035 A 
ATOM     17  C12 LG1 d5015      29.885  11.007  45.861  0.00  0.00     0.070 C 
ENDBRANCH   1  11
BRANCH   4  18
ATOM     18  C7  LG1 d5015      30.788   7.270  51.056  0.00  0.00     0.423 C 
ATOM     19  F4  LG1 d5015      30.197   6.041  51.131  0.00  0.00    -0.166 F 
ATOM     20  F3  LG1 d5015      30.870   7.705  52.348  0.00  0.00    -0.166 F 
ATOM     21  F5  LG1 d5015      32.075   7.034  50.668  0.00  0.00    -0.166 F 
ENDBRANCH   4  18
TORSDOF 2
ENDMDL
