REMARK INTER + INTRA:          -6.318
REMARK INTER:                  -6.287
REMARK INTRA:                  -0.030
REMARK UNBOUND:                -0.165
REMARK  1 active torsions:
REMARK  status: ('A' for Active; 'I' for Inactive)
REMARK    1  A    between atoms: C10_13  and  C11_14 
ROOT
ATOM      1  C1  LG1 d5015      28.404  10.234  47.346  0.00  0.00     0.018 C 
ATOM      2  C2  LG1 d5015      28.331   8.818  47.786  0.00  0.00     0.193 C 
ATOM      3  C3  LG1 d5015      29.161   8.502  48.968  0.00  0.00     0.049 A 
ATOM      4  C4  LG1 d5015      29.269   7.184  49.415  0.00  0.00     0.037 A 
ATOM      5  C5  LG1 d5015      30.005   6.903  50.567  0.00  0.00     0.012 A 
ATOM      6  C6  LG1 d5015      30.623   7.933  51.277  0.00  0.00     0.022 A 
ATOM      7  C7  LG1 d5015      30.511   9.252  50.831  0.00  0.00     0.039 A 
ATOM      8  C8  LG1 d5015      29.795   9.536  49.668  0.00  0.00     0.083 A 
ATOM      9  O1  LG1 d5015      29.711  10.852  49.298  0.00  0.00    -0.346 OA
ATOM     10  C9  LG1 d5015      29.545  11.031  47.887  0.00  0.00     0.218 C 
ATOM     11 BR1  LG1 d5015      30.181   5.115  51.161  0.00  0.00    -0.051 Br
ATOM     12  O2  LG1 d5015      27.650   7.969  47.231  0.00  0.00    -0.287 OA
ATOM     13  C10 LG1 d5015      27.475  10.709  46.507  0.00  0.00     0.025 C 
ENDROOT
BRANCH  13  14
ATOM     14  C11 LG1 d5015      27.438  12.053  46.013  0.00  0.00    -0.029 A 
ATOM     15  C14 LG1 d5015      26.446  12.947  46.350  0.00  0.00     0.061 A 
ATOM     16  S1  LG1 d5015      26.674  14.471  45.606  0.00  0.00    -0.113 SA
ATOM     17  C13 LG1 d5015      28.104  13.939  44.829  0.00  0.00     0.050 A 
ATOM     18  C12 LG1 d5015      28.399  12.629  45.132  0.00  0.00     0.019 A 
ENDBRANCH  13  14
TORSDOF 1
ENDMDL
