REMARK INTER + INTRA:          -6.025
REMARK INTER:                  -5.859
REMARK INTRA:                  -0.166
REMARK UNBOUND:                -0.124
REMARK  1 active torsions:
REMARK  status: ('A' for Active; 'I' for Inactive)
REMARK    1  A    between atoms: C10_13  and  C11_14 
ROOT
ATOM      1  C1  LG1 d5015      30.085   9.951  48.242  0.00  0.00     0.018 C 
ATOM      2  C2  LG1 d5015      29.097  10.898  48.815  0.00  0.00     0.193 C 
ATOM      3  C3  LG1 d5015      27.752  10.824  48.205  0.00  0.00     0.049 A 
ATOM      4  C4  LG1 d5015      26.764  11.738  48.576  0.00  0.00     0.037 A 
ATOM      5  C5  LG1 d5015      25.480  11.624  48.040  0.00  0.00     0.012 A 
ATOM      6  C6  LG1 d5015      25.181  10.596  47.145  0.00  0.00     0.022 A 
ATOM      7  C7  LG1 d5015      26.169   9.681  46.778  0.00  0.00     0.039 A 
ATOM      8  C8  LG1 d5015      27.459   9.803  47.293  0.00  0.00     0.083 A 
ATOM      9  O1  LG1 d5015      28.374   8.862  46.904  0.00  0.00    -0.346 OA
ATOM     10  C9  LG1 d5015      29.723   9.343  46.926  0.00  0.00     0.218 C 
ATOM     11 BR1  LG1 d5015      24.145  12.876  48.515  0.00  0.00    -0.051 Br
ATOM     12  O2  LG1 d5015      29.353  11.684  49.716  0.00  0.00    -0.287 OA
ATOM     13  C10 LG1 d5015      31.218   9.700  48.909  0.00  0.00     0.025 C 
ENDROOT
BRANCH  13  14
ATOM     14  C11 LG1 d5015      32.244   8.807  48.460  0.00  0.00    -0.029 A 
ATOM     15  C14 LG1 d5015      33.352   9.232  47.761  0.00  0.00     0.061 A 
ATOM     16  S1  LG1 d5015      34.397   7.935  47.365  0.00  0.00    -0.113 SA
ATOM     17  C13 LG1 d5015      33.369   6.800  48.129  0.00  0.00     0.050 A 
ATOM     18  C12 LG1 d5015      32.254   7.398  48.674  0.00  0.00     0.019 A 
ENDBRANCH  13  14
TORSDOF 1
ENDMDL
