MODEL 1
REMARK VINA RESULT:    -5.813      0.000      0.000
REMARK INTER + INTRA:          -6.318
REMARK INTER:                  -6.287
REMARK INTRA:                  -0.030
REMARK UNBOUND:                -0.165
REMARK  1 active torsions:
REMARK  status: ('A' for Active; 'I' for Inactive)
REMARK    1  A    between atoms: C10_13  and  C11_14 
ROOT
ATOM      1  C1  LG1 d5015      28.404  10.234  47.346  0.00  0.00     0.018 C 
ATOM      2  C2  LG1 d5015      28.331   8.818  47.786  0.00  0.00     0.193 C 
ATOM      3  C3  LG1 d5015      29.161   8.502  48.968  0.00  0.00     0.049 A 
ATOM      4  C4  LG1 d5015      29.269   7.184  49.415  0.00  0.00     0.037 A 
ATOM      5  C5  LG1 d5015      30.005   6.903  50.567  0.00  0.00     0.012 A 
ATOM      6  C6  LG1 d5015      30.623   7.933  51.277  0.00  0.00     0.022 A 
ATOM      7  C7  LG1 d5015      30.511   9.252  50.831  0.00  0.00     0.039 A 
ATOM      8  C8  LG1 d5015      29.795   9.536  49.668  0.00  0.00     0.083 A 
ATOM      9  O1  LG1 d5015      29.711  10.852  49.298  0.00  0.00    -0.346 OA
ATOM     10  C9  LG1 d5015      29.545  11.031  47.887  0.00  0.00     0.218 C 
ATOM     11 BR1  LG1 d5015      30.181   5.115  51.161  0.00  0.00    -0.051 Br
ATOM     12  O2  LG1 d5015      27.650   7.969  47.231  0.00  0.00    -0.287 OA
ATOM     13  C10 LG1 d5015      27.475  10.709  46.507  0.00  0.00     0.025 C 
ENDROOT
BRANCH  13  14
ATOM     14  C11 LG1 d5015      27.438  12.053  46.013  0.00  0.00    -0.029 A 
ATOM     15  C14 LG1 d5015      26.446  12.947  46.350  0.00  0.00     0.061 A 
ATOM     16  S1  LG1 d5015      26.674  14.471  45.606  0.00  0.00    -0.113 SA
ATOM     17  C13 LG1 d5015      28.104  13.939  44.829  0.00  0.00     0.050 A 
ATOM     18  C12 LG1 d5015      28.399  12.629  45.132  0.00  0.00     0.019 A 
ENDBRANCH  13  14
TORSDOF 1
ENDMDL
MODEL 2
REMARK VINA RESULT:    -5.688      4.196      5.711
REMARK INTER + INTRA:          -6.186
REMARK INTER:                  -6.019
REMARK INTRA:                  -0.167
REMARK UNBOUND:                -0.165
REMARK  1 active torsions:
REMARK  status: ('A' for Active; 'I' for Inactive)
REMARK    1  A    between atoms: C10_13  and  C11_14 
ROOT
ATOM      1  C1  LG1 d5015      28.315  10.092  47.134  0.00  0.00     0.018 C 
ATOM      2  C2  LG1 d5015      26.942  10.000  46.579  0.00  0.00     0.193 C 
ATOM      3  C3  LG1 d5015      25.921  10.747  47.343  0.00  0.00     0.049 A 
ATOM      4  C4  LG1 d5015      24.573  10.651  46.990  0.00  0.00     0.037 A 
ATOM      5  C5  LG1 d5015      23.623  11.407  47.679  0.00  0.00     0.012 A 
ATOM      6  C6  LG1 d5015      24.017  12.263  48.708  0.00  0.00     0.022 A 
ATOM      7  C7  LG1 d5015      25.365  12.361  49.057  0.00  0.00     0.039 A 
ATOM      8  C8  LG1 d5015      26.316  11.592  48.387  0.00  0.00     0.083 A 
ATOM      9  O1  LG1 d5015      27.622  11.750  48.769  0.00  0.00    -0.346 OA
ATOM     10  C9  LG1 d5015      28.421  10.585  48.541  0.00  0.00     0.218 C 
ATOM     11 BR1  LG1 d5015      21.792  11.258  47.227  0.00  0.00    -0.051 Br
ATOM     12  O2  LG1 d5015      26.658   9.363  45.575  0.00  0.00    -0.287 OA
ATOM     13  C10 LG1 d5015      29.357   9.736  46.373  0.00  0.00     0.025 C 
ENDROOT
BRANCH  13  14
ATOM     14  C11 LG1 d5015      30.725   9.781  46.796  0.00  0.00    -0.029 A 
ATOM     15  C14 LG1 d5015      31.352   8.724  47.417  0.00  0.00     0.061 A 
ATOM     16  S1  LG1 d5015      32.982   9.078  47.799  0.00  0.00    -0.113 SA
ATOM     17  C13 LG1 d5015      32.854  10.651  47.134  0.00  0.00     0.050 A 
ATOM     18  C12 LG1 d5015      31.596  10.898  46.631  0.00  0.00     0.019 A 
ENDBRANCH  13  14
TORSDOF 1
ENDMDL
MODEL 3
REMARK VINA RESULT:    -5.615      4.061      6.556
REMARK INTER + INTRA:          -6.108
REMARK INTER:                  -5.939
REMARK INTRA:                  -0.169
REMARK UNBOUND:                -0.165
REMARK  1 active torsions:
REMARK  status: ('A' for Active; 'I' for Inactive)
REMARK    1  A    between atoms: C10_13  and  C11_14 
ROOT
ATOM      1  C1  LG1 d5015      30.213   9.676  48.827  0.00  0.00     0.018 C 
ATOM      2  C2  LG1 d5015      29.230  10.767  49.039  0.00  0.00     0.193 C 
ATOM      3  C3  LG1 d5015      27.983  10.627  48.258  0.00  0.00     0.049 A 
ATOM      4  C4  LG1 d5015      27.024  11.643  48.281  0.00  0.00     0.037 A 
ATOM      5  C5  LG1 d5015      25.824  11.476  47.589  0.00  0.00     0.012 A 
ATOM      6  C6  LG1 d5015      25.576  10.298  46.885  0.00  0.00     0.022 A 
ATOM      7  C7  LG1 d5015      26.533   9.282  46.865  0.00  0.00     0.039 A 
ATOM      8  C8  LG1 d5015      27.743   9.451  47.536  0.00  0.00     0.083 A 
ATOM      9  O1  LG1 d5015      28.630   8.408  47.490  0.00  0.00    -0.346 OA
ATOM     10  C9  LG1 d5015      29.994   8.821  47.621  0.00  0.00     0.218 C 
ATOM     11 BR1  LG1 d5015      24.534  12.860  47.591  0.00  0.00    -0.051 Br
ATOM     12  O2  LG1 d5015      29.416  11.712  49.792  0.00  0.00    -0.287 OA
ATOM     13  C10 LG1 d5015      31.219   9.520  49.696  0.00  0.00     0.025 C 
ENDROOT
BRANCH  13  14
ATOM     14  C11 LG1 d5015      32.227   8.507  49.599  0.00  0.00    -0.029 A 
ATOM     15  C14 LG1 d5015      33.417   8.697  48.932  0.00  0.00     0.061 A 
ATOM     16  S1  LG1 d5015      34.415   7.309  48.991  0.00  0.00    -0.113 SA
ATOM     17  C13 LG1 d5015      33.257   6.447  49.912  0.00  0.00     0.050 A 
ATOM     18  C12 LG1 d5015      32.135   7.203  50.168  0.00  0.00     0.019 A 
ENDBRANCH  13  14
TORSDOF 1
ENDMDL
MODEL 4
REMARK VINA RESULT:    -5.555      2.234      2.863
REMARK INTER + INTRA:          -6.044
REMARK INTER:                  -5.876
REMARK INTRA:                  -0.169
REMARK UNBOUND:                -0.165
REMARK  1 active torsions:
REMARK  status: ('A' for Active; 'I' for Inactive)
REMARK    1  A    between atoms: C10_13  and  C11_14 
ROOT
ATOM      1  C1  LG1 d5015      26.770  10.139  47.323  0.00  0.00     0.018 C 
ATOM      2  C2  LG1 d5015      27.691   8.978  47.419  0.00  0.00     0.193 C 
ATOM      3  C3  LG1 d5015      28.896   9.220  48.240  0.00  0.00     0.049 A 
ATOM      4  C4  LG1 d5015      29.896   8.248  48.318  0.00  0.00     0.037 A 
ATOM      5  C5  LG1 d5015      31.002   8.458  49.144  0.00  0.00     0.012 A 
ATOM      6  C6  LG1 d5015      31.105   9.629  49.896  0.00  0.00     0.022 A 
ATOM      7  C7  LG1 d5015      30.104  10.598  49.820  0.00  0.00     0.039 A 
ATOM      8  C8  LG1 d5015      29.007  10.403  48.980  0.00  0.00     0.083 A 
ATOM      9  O1  LG1 d5015      28.053  11.386  48.966  0.00  0.00    -0.346 OA
ATOM     10  C9  LG1 d5015      27.337  11.460  47.729  0.00  0.00     0.218 C 
ATOM     11 BR1  LG1 d5015      32.374   7.160  49.231  0.00  0.00    -0.051 Br
ATOM     12  O2  LG1 d5015      27.489   7.905  46.870  0.00  0.00    -0.287 OA
ATOM     13  C10 LG1 d5015      25.519   9.950  46.887  0.00  0.00     0.025 C 
ENDROOT
BRANCH  13  14
ATOM     14  C11 LG1 d5015      24.541  10.987  46.753  0.00  0.00    -0.029 A 
ATOM     15  C14 LG1 d5015      24.357  11.696  45.586  0.00  0.00     0.061 A 
ATOM     16  S1  LG1 d5015      23.117  12.866  45.733  0.00  0.00    -0.113 SA
ATOM     17  C13 LG1 d5015      22.821  12.427  47.362  0.00  0.00     0.050 A 
ATOM     18  C12 LG1 d5015      23.649  11.411  47.782  0.00  0.00     0.019 A 
ENDBRANCH  13  14
TORSDOF 1
ENDMDL
MODEL 5
REMARK VINA RESULT:    -5.415      2.353      3.378
REMARK INTER + INTRA:          -5.897
REMARK INTER:                  -5.732
REMARK INTRA:                  -0.165
REMARK UNBOUND:                -0.165
REMARK  1 active torsions:
REMARK  status: ('A' for Active; 'I' for Inactive)
REMARK    1  A    between atoms: C10_13  and  C11_14 
ROOT
ATOM      1  C1  LG1 d5015      27.746  10.584  48.126  0.00  0.00     0.018 C 
ATOM      2  C2  LG1 d5015      28.997  10.704  48.916  0.00  0.00     0.193 C 
ATOM      3  C3  LG1 d5015      29.988   9.638  48.658  0.00  0.00     0.049 A 
ATOM      4  C4  LG1 d5015      31.158   9.572  49.417  0.00  0.00     0.037 A 
ATOM      5  C5  LG1 d5015      32.116   8.599  49.128  0.00  0.00     0.012 A 
ATOM      6  C6  LG1 d5015      31.912   7.702  48.078  0.00  0.00     0.022 A 
ATOM      7  C7  LG1 d5015      30.744   7.771  47.318  0.00  0.00     0.039 A 
ATOM      8  C8  LG1 d5015      29.773   8.727  47.617  0.00  0.00     0.083 A 
ATOM      9  O1  LG1 d5015      28.659   8.750  46.820  0.00  0.00    -0.346 OA
ATOM     10  C9  LG1 d5015      27.498   9.255  47.488  0.00  0.00     0.218 C 
ATOM     11 BR1  LG1 d5015      33.689   8.484  50.171  0.00  0.00    -0.051 Br
ATOM     12  O2  LG1 d5015      29.208  11.601  49.719  0.00  0.00    -0.287 OA
ATOM     13  C10 LG1 d5015      26.925  11.637  48.031  0.00  0.00     0.025 C 
ENDROOT
BRANCH  13  14
ATOM     14  C11 LG1 d5015      25.694  11.644  47.299  0.00  0.00    -0.029 A 
ATOM     15  C14 LG1 d5015      25.606  12.053  45.987  0.00  0.00     0.061 A 
ATOM     16  S1  LG1 d5015      24.007  11.947  45.387  0.00  0.00    -0.113 SA
ATOM     17  C13 LG1 d5015      23.426  11.353  46.884  0.00  0.00     0.050 A 
ATOM     18  C12 LG1 d5015      24.430  11.238  47.818  0.00  0.00     0.019 A 
ENDBRANCH  13  14
TORSDOF 1
ENDMDL
