REMARK INTER + INTRA:          -5.876
REMARK INTER:                  -5.708
REMARK INTRA:                  -0.168
REMARK UNBOUND:                -0.169
REMARK  1 active torsions:
REMARK  status: ('A' for Active; 'I' for Inactive)
REMARK    1  A    between atoms: C10_13  and  C11_14 
ROOT
ATOM      1  C1  LG1 d5015      27.761  10.600  48.119  0.00  0.00     0.018 C 
ATOM      2  C2  LG1 d5015      29.019  10.689  48.901  0.00  0.00     0.193 C 
ATOM      3  C3  LG1 d5015      29.987   9.605  48.629  0.00  0.00     0.049 A 
ATOM      4  C4  LG1 d5015      31.161   9.510  49.380  0.00  0.00     0.037 A 
ATOM      5  C5  LG1 d5015      32.097   8.521  49.076  0.00  0.00     0.012 A 
ATOM      6  C6  LG1 d5015      31.868   7.636  48.022  0.00  0.00     0.022 A 
ATOM      7  C7  LG1 d5015      30.697   7.734  47.270  0.00  0.00     0.039 A 
ATOM      8  C8  LG1 d5015      29.747   8.707  47.583  0.00  0.00     0.083 A 
ATOM      9  O1  LG1 d5015      28.628   8.758  46.794  0.00  0.00    -0.346 OA
ATOM     10  C9  LG1 d5015      27.483   9.282  47.473  0.00  0.00     0.218 C 
ATOM     11 BR1  LG1 d5015      33.675   8.367  50.108  0.00  0.00    -0.051 Br
ATOM     12  O2  LG1 d5015      29.254  11.575  49.709  0.00  0.00    -0.287 OA
ATOM     13  C10 LG1 d5015      26.961  11.670  48.038  0.00  0.00     0.025 C 
ENDROOT
BRANCH  13  14
ATOM     14  C11 LG1 d5015      25.725  11.708  47.315  0.00  0.00    -0.029 A 
ATOM     15  C14 LG1 d5015      25.642  12.096  45.997  0.00  0.00     0.061 A 
ATOM     16  S1  LG1 d5015      24.036  12.035  45.409  0.00  0.00    -0.113 SA
ATOM     17  C13 LG1 d5015      23.445  11.488  46.919  0.00  0.00     0.050 A 
ATOM     18  C12 LG1 d5015      24.453  11.355  47.850  0.00  0.00     0.019 A 
ENDBRANCH  13  14
TORSDOF 1
ENDMDL
