REMARK INTER + INTRA:          -5.363
REMARK INTER:                  -5.180
REMARK INTRA:                  -0.182
REMARK UNBOUND:                -0.205
REMARK  1 active torsions:
REMARK  status: ('A' for Active; 'I' for Inactive)
REMARK    1  A    between atoms: C1_1  and  N1_10 
ROOT
ATOM      1  C1  LG1 d5015      29.147   8.501  48.577  0.00  0.00     0.056 A 
ATOM      2  C2  LG1 d5015      29.310   9.779  49.111  0.00  0.00    -0.033 A 
ATOM      3  C3  LG1 d5015      28.475  10.818  48.701  0.00  0.00     0.028 A 
ATOM      4  C4  LG1 d5015      27.477  10.580  47.757  0.00  0.00     0.012 A 
ATOM      5  C5  LG1 d5015      27.314   9.301  47.221  0.00  0.00     0.028 A 
ATOM      6  C6  LG1 d5015      28.149   8.263  47.632  0.00  0.00    -0.033 A 
ATOM      7  C7  LG1 d5015      27.950   6.904  47.041  0.00  0.00     0.050 C 
ATOM      8 BR1  LG1 d5015      26.347  11.989  47.200  0.00  0.00    -0.051 Br
ATOM      9  C8  LG1 d5015      30.370  10.064  50.126  0.00  0.00     0.050 C 
ENDROOT
BRANCH   1  10
ATOM     10  N1  LG1 d5015      30.005   7.431  49.000  0.00  0.00    -0.265 N 
ATOM     11  C11 LG1 d5015      31.232   7.131  48.408  0.00  0.00     0.148 C 
ATOM     12  S2  LG1 d5015      32.133   7.991  47.286  0.00  0.00    -0.052 SA
ATOM     13  S1  LG1 d5015      31.870   5.646  49.104  0.00  0.00    -0.090 SA
ATOM     14  C10 LG1 d5015      30.640   5.582  50.406  0.00  0.00     0.185 C 
ATOM     15  C9  LG1 d5015      29.600   6.609  50.061  0.00  0.00     0.239 C 
ATOM     16  O1  LG1 d5015      28.535   6.649  50.672  0.00  0.00    -0.272 OA
ENDBRANCH   1  10
TORSDOF 1
ENDMDL
