REMARK INTER + INTRA:          -6.108
REMARK INTER:                  -5.939
REMARK INTRA:                  -0.169
REMARK UNBOUND:                -0.165
REMARK  1 active torsions:
REMARK  status: ('A' for Active; 'I' for Inactive)
REMARK    1  A    between atoms: C10_13  and  C11_14 
ROOT
ATOM      1  C1  LG1 d5015      30.213   9.676  48.827  0.00  0.00     0.018 C 
ATOM      2  C2  LG1 d5015      29.230  10.767  49.039  0.00  0.00     0.193 C 
ATOM      3  C3  LG1 d5015      27.983  10.627  48.258  0.00  0.00     0.049 A 
ATOM      4  C4  LG1 d5015      27.024  11.643  48.281  0.00  0.00     0.037 A 
ATOM      5  C5  LG1 d5015      25.824  11.476  47.589  0.00  0.00     0.012 A 
ATOM      6  C6  LG1 d5015      25.576  10.298  46.885  0.00  0.00     0.022 A 
ATOM      7  C7  LG1 d5015      26.533   9.282  46.865  0.00  0.00     0.039 A 
ATOM      8  C8  LG1 d5015      27.743   9.451  47.536  0.00  0.00     0.083 A 
ATOM      9  O1  LG1 d5015      28.630   8.408  47.490  0.00  0.00    -0.346 OA
ATOM     10  C9  LG1 d5015      29.994   8.821  47.621  0.00  0.00     0.218 C 
ATOM     11 BR1  LG1 d5015      24.534  12.860  47.591  0.00  0.00    -0.051 Br
ATOM     12  O2  LG1 d5015      29.416  11.712  49.792  0.00  0.00    -0.287 OA
ATOM     13  C10 LG1 d5015      31.219   9.520  49.696  0.00  0.00     0.025 C 
ENDROOT
BRANCH  13  14
ATOM     14  C11 LG1 d5015      32.227   8.507  49.599  0.00  0.00    -0.029 A 
ATOM     15  C14 LG1 d5015      33.417   8.697  48.932  0.00  0.00     0.061 A 
ATOM     16  S1  LG1 d5015      34.415   7.309  48.991  0.00  0.00    -0.113 SA
ATOM     17  C13 LG1 d5015      33.257   6.447  49.912  0.00  0.00     0.050 A 
ATOM     18  C12 LG1 d5015      32.135   7.203  50.168  0.00  0.00     0.019 A 
ENDBRANCH  13  14
TORSDOF 1
ENDMDL
