REMARK INTER + INTRA:          -5.897
REMARK INTER:                  -5.732
REMARK INTRA:                  -0.165
REMARK UNBOUND:                -0.165
REMARK  1 active torsions:
REMARK  status: ('A' for Active; 'I' for Inactive)
REMARK    1  A    between atoms: C10_13  and  C11_14 
ROOT
ATOM      1  C1  LG1 d5015      27.746  10.584  48.126  0.00  0.00     0.018 C 
ATOM      2  C2  LG1 d5015      28.997  10.704  48.916  0.00  0.00     0.193 C 
ATOM      3  C3  LG1 d5015      29.988   9.638  48.658  0.00  0.00     0.049 A 
ATOM      4  C4  LG1 d5015      31.158   9.572  49.417  0.00  0.00     0.037 A 
ATOM      5  C5  LG1 d5015      32.116   8.599  49.128  0.00  0.00     0.012 A 
ATOM      6  C6  LG1 d5015      31.912   7.702  48.078  0.00  0.00     0.022 A 
ATOM      7  C7  LG1 d5015      30.744   7.771  47.318  0.00  0.00     0.039 A 
ATOM      8  C8  LG1 d5015      29.773   8.727  47.617  0.00  0.00     0.083 A 
ATOM      9  O1  LG1 d5015      28.659   8.750  46.820  0.00  0.00    -0.346 OA
ATOM     10  C9  LG1 d5015      27.498   9.255  47.488  0.00  0.00     0.218 C 
ATOM     11 BR1  LG1 d5015      33.689   8.484  50.171  0.00  0.00    -0.051 Br
ATOM     12  O2  LG1 d5015      29.208  11.601  49.719  0.00  0.00    -0.287 OA
ATOM     13  C10 LG1 d5015      26.925  11.637  48.031  0.00  0.00     0.025 C 
ENDROOT
BRANCH  13  14
ATOM     14  C11 LG1 d5015      25.694  11.644  47.299  0.00  0.00    -0.029 A 
ATOM     15  C14 LG1 d5015      25.606  12.053  45.987  0.00  0.00     0.061 A 
ATOM     16  S1  LG1 d5015      24.007  11.947  45.387  0.00  0.00    -0.113 SA
ATOM     17  C13 LG1 d5015      23.426  11.353  46.884  0.00  0.00     0.050 A 
ATOM     18  C12 LG1 d5015      24.430  11.238  47.818  0.00  0.00     0.019 A 
ENDBRANCH  13  14
TORSDOF 1
ENDMDL
