REMARK INTER + INTRA:          -5.350
REMARK INTER:                  -5.150
REMARK INTRA:                  -0.200
REMARK UNBOUND:                -0.206
REMARK  1 active torsions:
REMARK  status: ('A' for Active; 'I' for Inactive)
REMARK    1  A    between atoms: C1_1  and  N1_10 
ROOT
ATOM      1  C1  LG1 d5015      28.455   9.629  47.598  0.00  0.00     0.056 A 
ATOM      2  C2  LG1 d5015      27.897   8.431  47.154  0.00  0.00    -0.033 A 
ATOM      3  C3  LG1 d5015      28.067   7.264  47.900  0.00  0.00     0.028 A 
ATOM      4  C4  LG1 d5015      28.795   7.295  49.088  0.00  0.00     0.012 A 
ATOM      5  C5  LG1 d5015      29.355   8.495  49.532  0.00  0.00     0.028 A 
ATOM      6  C6  LG1 d5015      29.184   9.660  48.787  0.00  0.00    -0.033 A 
ATOM      7  C7  LG1 d5015      29.795  10.930  49.288  0.00  0.00     0.050 C 
ATOM      8 BR1  LG1 d5015      29.028   5.714  50.097  0.00  0.00    -0.051 Br
ATOM      9  C8  LG1 d5015      27.110   8.366  45.886  0.00  0.00     0.050 C 
ENDROOT
BRANCH   1  10
ATOM     10  N1  LG1 d5015      28.278  10.831  46.832  0.00  0.00    -0.265 N 
ATOM     11  C11 LG1 d5015      27.174  11.675  46.945  0.00  0.00     0.148 C 
ATOM     12  S2  LG1 d5015      25.936  11.697  48.075  0.00  0.00    -0.052 SA
ATOM     13  S1  LG1 d5015      27.264  12.923  45.708  0.00  0.00    -0.090 SA
ATOM     14  C10 LG1 d5015      28.938  12.500  45.228  0.00  0.00     0.185 C 
ATOM     15  C9  LG1 d5015      29.255  11.192  45.893  0.00  0.00     0.239 C 
ATOM     16  O1  LG1 d5015      30.262  10.560  45.584  0.00  0.00    -0.272 OA
ENDBRANCH   1  10
TORSDOF 1
ENDMDL
