MODEL 1
REMARK VINA RESULT:    -5.803      0.000      0.000
REMARK INTER + INTRA:          -6.311
REMARK INTER:                  -6.288
REMARK INTRA:                  -0.023
REMARK UNBOUND:                -0.169
REMARK  1 active torsions:
REMARK  status: ('A' for Active; 'I' for Inactive)
REMARK    1  A    between atoms: C10_13  and  C11_14 
ROOT
ATOM      1  C1  LG1 d5015      28.409  10.222  47.319  0.00  0.00     0.018 C 
ATOM      2  C2  LG1 d5015      28.329   8.804  47.750  0.00  0.00     0.193 C 
ATOM      3  C3  LG1 d5015      29.156   8.476  48.931  0.00  0.00     0.049 A 
ATOM      4  C4  LG1 d5015      29.258   7.154  49.369  0.00  0.00     0.037 A 
ATOM      5  C5  LG1 d5015      29.991   6.862  50.520  0.00  0.00     0.012 A 
ATOM      6  C6  LG1 d5015      30.613   7.885  51.237  0.00  0.00     0.022 A 
ATOM      7  C7  LG1 d5015      30.508   9.207  50.800  0.00  0.00     0.039 A 
ATOM      8  C8  LG1 d5015      29.794   9.502  49.638  0.00  0.00     0.083 A 
ATOM      9  O1  LG1 d5015      29.717  10.821  49.276  0.00  0.00    -0.346 OA
ATOM     10  C9  LG1 d5015      29.554  11.010  47.867  0.00  0.00     0.218 C 
ATOM     11 BR1  LG1 d5015      30.159   5.070  51.102  0.00  0.00    -0.051 Br
ATOM     12  O2  LG1 d5015      27.645   7.961  47.188  0.00  0.00    -0.287 OA
ATOM     13  C10 LG1 d5015      27.483  10.707  46.482  0.00  0.00     0.025 C 
ENDROOT
BRANCH  13  14
ATOM     14  C11 LG1 d5015      27.453  12.054  45.997  0.00  0.00    -0.029 A 
ATOM     15  C14 LG1 d5015      26.457  12.945  46.328  0.00  0.00     0.061 A 
ATOM     16  S1  LG1 d5015      26.696  14.475  45.598  0.00  0.00    -0.113 SA
ATOM     17  C13 LG1 d5015      28.134  13.948  44.834  0.00  0.00     0.050 A 
ATOM     18  C12 LG1 d5015      28.424  12.634  45.132  0.00  0.00     0.019 A 
ENDBRANCH  13  14
TORSDOF 1
ENDMDL
MODEL 2
REMARK VINA RESULT:    -5.601      4.116      6.474
REMARK INTER + INTRA:          -6.098
REMARK INTER:                  -5.929
REMARK INTRA:                  -0.169
REMARK UNBOUND:                -0.169
REMARK  1 active torsions:
REMARK  status: ('A' for Active; 'I' for Inactive)
REMARK    1  A    between atoms: C10_13  and  C11_14 
ROOT
ATOM      1  C1  LG1 d5015      30.140   9.735  48.753  0.00  0.00     0.018 C 
ATOM      2  C2  LG1 d5015      29.135  10.801  48.990  0.00  0.00     0.193 C 
ATOM      3  C3  LG1 d5015      27.893  10.657  48.202  0.00  0.00     0.049 A 
ATOM      4  C4  LG1 d5015      26.915  11.653  48.248  0.00  0.00     0.037 A 
ATOM      5  C5  LG1 d5015      25.720  11.481  47.548  0.00  0.00     0.012 A 
ATOM      6  C6  LG1 d5015      25.496  10.316  46.813  0.00  0.00     0.022 A 
ATOM      7  C7  LG1 d5015      26.473   9.320  46.770  0.00  0.00     0.039 A 
ATOM      8  C8  LG1 d5015      27.679   9.496  47.450  0.00  0.00     0.083 A 
ATOM      9  O1  LG1 d5015      28.586   8.472  47.379  0.00  0.00    -0.346 OA
ATOM     10  C9  LG1 d5015      29.941   8.908  47.525  0.00  0.00     0.218 C 
ATOM     11 BR1  LG1 d5015      24.403  12.839  47.582  0.00  0.00    -0.051 Br
ATOM     12  O2  LG1 d5015      29.301  11.730  49.768  0.00  0.00    -0.287 OA
ATOM     13  C10 LG1 d5015      31.147   9.577  49.621  0.00  0.00     0.025 C 
ENDROOT
BRANCH  13  14
ATOM     14  C11 LG1 d5015      32.175   8.587  49.502  0.00  0.00    -0.029 A 
ATOM     15  C14 LG1 d5015      32.077   7.336  50.068  0.00  0.00     0.061 A 
ATOM     16  S1  LG1 d5015      33.459   6.378  49.750  0.00  0.00    -0.113 SA
ATOM     17  C13 LG1 d5015      34.194   7.636  48.852  0.00  0.00     0.050 A 
ATOM     18  C12 LG1 d5015      33.401   8.761  48.797  0.00  0.00     0.019 A 
ENDBRANCH  13  14
TORSDOF 1
ENDMDL
MODEL 3
REMARK VINA RESULT:    -5.502      2.034      2.303
REMARK INTER + INTRA:          -5.992
REMARK INTER:                  -5.825
REMARK INTRA:                  -0.168
REMARK UNBOUND:                -0.169
REMARK  1 active torsions:
REMARK  status: ('A' for Active; 'I' for Inactive)
REMARK    1  A    between atoms: C10_13  and  C11_14 
ROOT
ATOM      1  C1  LG1 d5015      27.071  10.023  47.370  0.00  0.00     0.018 C 
ATOM      2  C2  LG1 d5015      27.858   8.796  47.646  0.00  0.00     0.193 C 
ATOM      3  C3  LG1 d5015      29.030   9.004  48.522  0.00  0.00     0.049 A 
ATOM      4  C4  LG1 d5015      29.916   7.953  48.768  0.00  0.00     0.037 A 
ATOM      5  C5  LG1 d5015      30.986   8.141  49.645  0.00  0.00     0.012 A 
ATOM      6  C6  LG1 d5015      31.165   9.370  50.281  0.00  0.00     0.022 A 
ATOM      7  C7  LG1 d5015      30.277  10.419  50.038  0.00  0.00     0.039 A 
ATOM      8  C8  LG1 d5015      29.219  10.243  49.146  0.00  0.00     0.083 A 
ATOM      9  O1  LG1 d5015      28.376  11.308  48.967  0.00  0.00    -0.346 OA
ATOM     10  C9  LG1 d5015      27.748  11.319  47.680  0.00  0.00     0.218 C 
ATOM     11 BR1  LG1 d5015      32.207   6.732  49.959  0.00  0.00    -0.051 Br
ATOM     12  O2  LG1 d5015      27.578   7.695  47.195  0.00  0.00    -0.287 OA
ATOM     13  C10 LG1 d5015      25.836   9.913  46.867  0.00  0.00     0.025 C 
ENDROOT
BRANCH  13  14
ATOM     14  C11 LG1 d5015      24.981  11.020  46.560  0.00  0.00    -0.029 A 
ATOM     15  C14 LG1 d5015      24.088  11.547  47.465  0.00  0.00     0.061 A 
ATOM     16  S1  LG1 d5015      23.211  12.863  46.809  0.00  0.00    -0.113 SA
ATOM     17  C13 LG1 d5015      24.025  12.731  45.310  0.00  0.00     0.050 A 
ATOM     18  C12 LG1 d5015      24.946  11.706  45.311  0.00  0.00     0.019 A 
ENDBRANCH  13  14
TORSDOF 1
ENDMDL
MODEL 4
REMARK VINA RESULT:    -5.392      2.335      3.367
REMARK INTER + INTRA:          -5.876
REMARK INTER:                  -5.708
REMARK INTRA:                  -0.168
REMARK UNBOUND:                -0.169
REMARK  1 active torsions:
REMARK  status: ('A' for Active; 'I' for Inactive)
REMARK    1  A    between atoms: C10_13  and  C11_14 
ROOT
ATOM      1  C1  LG1 d5015      27.761  10.600  48.119  0.00  0.00     0.018 C 
ATOM      2  C2  LG1 d5015      29.019  10.689  48.901  0.00  0.00     0.193 C 
ATOM      3  C3  LG1 d5015      29.987   9.605  48.629  0.00  0.00     0.049 A 
ATOM      4  C4  LG1 d5015      31.161   9.510  49.380  0.00  0.00     0.037 A 
ATOM      5  C5  LG1 d5015      32.097   8.521  49.076  0.00  0.00     0.012 A 
ATOM      6  C6  LG1 d5015      31.868   7.636  48.022  0.00  0.00     0.022 A 
ATOM      7  C7  LG1 d5015      30.697   7.734  47.270  0.00  0.00     0.039 A 
ATOM      8  C8  LG1 d5015      29.747   8.707  47.583  0.00  0.00     0.083 A 
ATOM      9  O1  LG1 d5015      28.628   8.758  46.794  0.00  0.00    -0.346 OA
ATOM     10  C9  LG1 d5015      27.483   9.282  47.473  0.00  0.00     0.218 C 
ATOM     11 BR1  LG1 d5015      33.675   8.367  50.108  0.00  0.00    -0.051 Br
ATOM     12  O2  LG1 d5015      29.254  11.575  49.709  0.00  0.00    -0.287 OA
ATOM     13  C10 LG1 d5015      26.961  11.670  48.038  0.00  0.00     0.025 C 
ENDROOT
BRANCH  13  14
ATOM     14  C11 LG1 d5015      25.725  11.708  47.315  0.00  0.00    -0.029 A 
ATOM     15  C14 LG1 d5015      25.642  12.096  45.997  0.00  0.00     0.061 A 
ATOM     16  S1  LG1 d5015      24.036  12.035  45.409  0.00  0.00    -0.113 SA
ATOM     17  C13 LG1 d5015      23.445  11.488  46.919  0.00  0.00     0.050 A 
ATOM     18  C12 LG1 d5015      24.453  11.355  47.850  0.00  0.00     0.019 A 
ENDBRANCH  13  14
TORSDOF 1
ENDMDL
MODEL 5
REMARK VINA RESULT:    -5.154      2.742      3.574
REMARK INTER + INTRA:          -5.624
REMARK INTER:                  -5.455
REMARK INTRA:                  -0.169
REMARK UNBOUND:                -0.169
REMARK  1 active torsions:
REMARK  status: ('A' for Active; 'I' for Inactive)
REMARK    1  A    between atoms: C10_13  and  C11_14 
ROOT
ATOM      1  C1  LG1 d5015      27.417  10.387  47.096  0.00  0.00     0.018 C 
ATOM      2  C2  LG1 d5015      28.432   9.385  47.507  0.00  0.00     0.193 C 
ATOM      3  C3  LG1 d5015      29.832   9.827  47.337  0.00  0.00     0.049 A 
ATOM      4  C4  LG1 d5015      30.881   8.938  47.581  0.00  0.00     0.037 A 
ATOM      5  C5  LG1 d5015      32.201   9.381  47.477  0.00  0.00     0.012 A 
ATOM      6  C6  LG1 d5015      32.473  10.708  47.142  0.00  0.00     0.022 A 
ATOM      7  C7  LG1 d5015      31.423  11.597  46.903  0.00  0.00     0.039 A 
ATOM      8  C8  LG1 d5015      30.103  11.154  46.983  0.00  0.00     0.083 A 
ATOM      9  O1  LG1 d5015      29.123  12.083  46.753  0.00  0.00    -0.346 OA
ATOM     10  C9  LG1 d5015      27.913  11.511  46.245  0.00  0.00     0.218 C 
ATOM     11 BR1  LG1 d5015      33.627   8.175  47.775  0.00  0.00    -0.051 Br
ATOM     12  O2  LG1 d5015      28.154   8.280  47.949  0.00  0.00    -0.287 OA
ATOM     13  C10 LG1 d5015      26.147  10.236  47.492  0.00  0.00     0.025 C 
ENDROOT
BRANCH  13  14
ATOM     14  C11 LG1 d5015      25.081  11.134  47.162  0.00  0.00    -0.029 A 
ATOM     15  C14 LG1 d5015      24.261  10.952  46.072  0.00  0.00     0.061 A 
ATOM     16  S1  LG1 d5015      23.082  12.186  45.942  0.00  0.00    -0.113 SA
ATOM     17  C13 LG1 d5015      23.668  12.970  47.346  0.00  0.00     0.050 A 
ATOM     18  C12 LG1 d5015      24.738  12.304  47.901  0.00  0.00     0.019 A 
ENDBRANCH  13  14
TORSDOF 1
ENDMDL
