REMARK INTER + INTRA:          -5.345
REMARK INTER:                  -5.167
REMARK INTRA:                  -0.178
REMARK UNBOUND:                -0.208
REMARK  1 active torsions:
REMARK  status: ('A' for Active; 'I' for Inactive)
REMARK    1  A    between atoms: C1_1  and  N1_10 
ROOT
ATOM      1  C1  LG1 d5015      29.154   8.491  48.514  0.00  0.00     0.056 A 
ATOM      2  C2  LG1 d5015      29.335   9.752  49.082  0.00  0.00    -0.033 A 
ATOM      3  C3  LG1 d5015      28.506  10.810  48.708  0.00  0.00     0.028 A 
ATOM      4  C4  LG1 d5015      27.496  10.608  47.768  0.00  0.00     0.012 A 
ATOM      5  C5  LG1 d5015      27.316   9.345  47.199  0.00  0.00     0.028 A 
ATOM      6  C6  LG1 d5015      28.145   8.289  47.573  0.00  0.00    -0.033 A 
ATOM      7  C7  LG1 d5015      27.927   6.949  46.947  0.00  0.00     0.050 C 
ATOM      8 BR1  LG1 d5015      26.374  12.042  47.260  0.00  0.00    -0.051 Br
ATOM      9  C8  LG1 d5015      30.406  10.000  50.093  0.00  0.00     0.050 C 
ENDROOT
BRANCH   1  10
ATOM     10  N1  LG1 d5015      30.006   7.402  48.899  0.00  0.00    -0.265 N 
ATOM     11  C11 LG1 d5015      31.228   7.111  48.292  0.00  0.00     0.148 C 
ATOM     12  S2  LG1 d5015      32.128   7.998  47.192  0.00  0.00    -0.052 SA
ATOM     13  S1  LG1 d5015      31.857   5.600  48.938  0.00  0.00    -0.090 SA
ATOM     14  C10 LG1 d5015      30.634   5.507  50.245  0.00  0.00     0.185 C 
ATOM     15  C9  LG1 d5015      29.600   6.551  49.937  0.00  0.00     0.239 C 
ATOM     16  O1  LG1 d5015      28.539   6.582  50.555  0.00  0.00    -0.272 OA
ENDBRANCH   1  10
TORSDOF 1
ENDMDL
