REMARK INTER + INTRA:          -6.103
REMARK INTER:                  -5.940
REMARK INTRA:                  -0.162
REMARK UNBOUND:                -0.165
REMARK  1 active torsions:
REMARK  status: ('A' for Active; 'I' for Inactive)
REMARK    1  A    between atoms: C10_13  and  C11_14 
ROOT
ATOM      1  C1  LG1 d5015      30.198   9.744  48.726  0.00  0.00     0.018 C 
ATOM      2  C2  LG1 d5015      29.214  10.813  49.028  0.00  0.00     0.193 C 
ATOM      3  C3  LG1 d5015      27.932  10.689  48.303  0.00  0.00     0.049 A 
ATOM      4  C4  LG1 d5015      26.965  11.690  48.413  0.00  0.00     0.037 A 
ATOM      5  C5  LG1 d5015      25.734  11.536  47.774  0.00  0.00     0.012 A 
ATOM      6  C6  LG1 d5015      25.464  10.383  47.036  0.00  0.00     0.022 A 
ATOM      7  C7  LG1 d5015      26.430   9.381  46.929  0.00  0.00     0.039 A 
ATOM      8  C8  LG1 d5015      27.670   9.539  47.548  0.00  0.00     0.083 A 
ATOM      9  O1  LG1 d5015      28.564   8.510  47.417  0.00  0.00    -0.346 OA
ATOM     10  C9  LG1 d5015      29.929   8.935  47.498  0.00  0.00     0.218 C 
ATOM     11 BR1  LG1 d5015      24.432  12.903  47.894  0.00  0.00    -0.051 Br
ATOM     12  O2  LG1 d5015      29.427  11.730  49.808  0.00  0.00    -0.287 OA
ATOM     13  C10 LG1 d5015      31.246   9.566  49.538  0.00  0.00     0.025 C 
ENDROOT
BRANCH  13  14
ATOM     14  C11 LG1 d5015      32.259   8.571  49.352  0.00  0.00    -0.029 A 
ATOM     15  C14 LG1 d5015      32.211   7.335  49.955  0.00  0.00     0.061 A 
ATOM     16  S1  LG1 d5015      33.560   6.365  49.541  0.00  0.00    -0.113 SA
ATOM     17  C13 LG1 d5015      34.213   7.599  48.551  0.00  0.00     0.050 A 
ATOM     18  C12 LG1 d5015      33.418   8.724  48.537  0.00  0.00     0.019 A 
ENDBRANCH  13  14
TORSDOF 1
ENDMDL
