REMARK INTER + INTRA:          -6.144
REMARK INTER:                  -5.978
REMARK INTRA:                  -0.166
REMARK UNBOUND:                -0.124
REMARK  1 active torsions:
REMARK  status: ('A' for Active; 'I' for Inactive)
REMARK    1  A    between atoms: C10_13  and  C11_14 
ROOT
ATOM      1  C1  LG1 d5015      28.321  10.120  46.979  0.00  0.00     0.018 C 
ATOM      2  C2  LG1 d5015      26.950  10.063  46.413  0.00  0.00     0.193 C 
ATOM      3  C3  LG1 d5015      25.926  10.763  47.218  0.00  0.00     0.049 A 
ATOM      4  C4  LG1 d5015      24.580  10.690  46.855  0.00  0.00     0.037 A 
ATOM      5  C5  LG1 d5015      23.627  11.402  47.585  0.00  0.00     0.012 A 
ATOM      6  C6  LG1 d5015      24.017  12.193  48.666  0.00  0.00     0.022 A 
ATOM      7  C7  LG1 d5015      25.364  12.269  49.026  0.00  0.00     0.039 A 
ATOM      8  C8  LG1 d5015      26.317  11.541  48.314  0.00  0.00     0.083 A 
ATOM      9  O1  LG1 d5015      27.622  11.675  48.710  0.00  0.00    -0.346 OA
ATOM     10  C9  LG1 d5015      28.421  10.525  48.413  0.00  0.00     0.218 C 
ATOM     11 BR1  LG1 d5015      21.798  11.283  47.118  0.00  0.00    -0.051 Br
ATOM     12  O2  LG1 d5015      26.669   9.489  45.371  0.00  0.00    -0.287 OA
ATOM     13  C10 LG1 d5015      29.366   9.810  46.201  0.00  0.00     0.025 C 
ENDROOT
BRANCH  13  14
ATOM     14  C11 LG1 d5015      30.731   9.828  46.631  0.00  0.00    -0.029 A 
ATOM     15  C14 LG1 d5015      31.396   8.700  47.058  0.00  0.00     0.061 A 
ATOM     16  S1  LG1 d5015      33.014   9.040  47.505  0.00  0.00    -0.113 SA
ATOM     17  C13 LG1 d5015      32.829  10.699  47.128  0.00  0.00     0.050 A 
ATOM     18  C12 LG1 d5015      31.561  10.986  46.671  0.00  0.00     0.019 A 
ENDBRANCH  13  14
TORSDOF 1
ENDMDL
