REMARK INTER + INTRA:          -7.019
REMARK INTER:                  -6.518
REMARK INTRA:                  -0.501
REMARK UNBOUND:                -0.501
REMARK  2 active torsions:
REMARK  status: ('A' for Active; 'I' for Inactive)
REMARK    1  A    between atoms: C1_1  and  N1_15 
REMARK    2  A    between atoms: C7_9  and  C4_4 
ROOT
ATOM      1  C1  LG1 d5015      27.358  11.314  47.013  0.00  0.00     0.141 A 
ATOM      2  C2  LG1 d5015      26.578  11.630  45.901  0.00  0.00     0.187 A 
ATOM      3  C3  LG1 d5015      25.332  12.232  46.071  0.00  0.00     0.175 A 
ATOM      4  C4  LG1 d5015      24.864  12.518  47.353  0.00  0.00     0.131 A 
ATOM      5  C5  LG1 d5015      25.643  12.201  48.466  0.00  0.00     0.175 A 
ATOM      6  C6  LG1 d5015      26.890  11.600  48.296  0.00  0.00     0.187 A 
ATOM      7  F1  LG1 d5015      27.627  11.301  49.375  0.00  0.00    -0.200 F 
ATOM      8  F2  LG1 d5015      25.201  12.472  49.703  0.00  0.00    -0.202 F 
ATOM      9  F6  LG1 d5015      24.591  12.533  44.994  0.00  0.00    -0.202 F 
ATOM     10  F7  LG1 d5015      27.016  11.361  44.662  0.00  0.00    -0.200 F 
ENDROOT
BRANCH   1  11
ATOM     11  N1  LG1 d5015      28.594  10.716  46.846  0.00  0.00    -0.232 N 
ATOM     12  N2  LG1 d5015      29.710  11.462  46.913  0.00  0.00    -0.172 NA
ATOM     13  C10 LG1 d5015      30.682  10.570  46.707  0.00  0.00     0.053 A 
ATOM     14  C9  LG1 d5015      30.191   9.265  46.510  0.00  0.00     0.055 A 
ATOM     15  C11 LG1 d5015      32.089  11.008  46.708  0.00  0.00     0.072 C 
ATOM     16  C8  LG1 d5015      28.827   9.395  46.606  0.00  0.00     0.035 A 
ATOM     17  C12 LG1 d5015      27.758   8.384  46.493  0.00  0.00     0.070 C 
ENDBRANCH   1  11
BRANCH   4  18
ATOM     18  C7  LG1 d5015      23.530  13.161  47.534  0.00  0.00     0.423 C 
ATOM     19  F4  LG1 d5015      22.888  13.429  46.359  0.00  0.00    -0.166 F 
ATOM     20  F3  LG1 d5015      23.585  14.357  48.191  0.00  0.00    -0.166 F 
ATOM     21  F5  LG1 d5015      22.668  12.387  48.255  0.00  0.00    -0.166 F 
ENDBRANCH   4  18
TORSDOF 2
ENDMDL
