REMARK INTER + INTRA:          -6.044
REMARK INTER:                  -5.876
REMARK INTRA:                  -0.169
REMARK UNBOUND:                -0.165
REMARK  1 active torsions:
REMARK  status: ('A' for Active; 'I' for Inactive)
REMARK    1  A    between atoms: C10_13  and  C11_14 
ROOT
ATOM      1  C1  LG1 d5015      26.770  10.139  47.323  0.00  0.00     0.018 C 
ATOM      2  C2  LG1 d5015      27.691   8.978  47.419  0.00  0.00     0.193 C 
ATOM      3  C3  LG1 d5015      28.896   9.220  48.240  0.00  0.00     0.049 A 
ATOM      4  C4  LG1 d5015      29.896   8.248  48.318  0.00  0.00     0.037 A 
ATOM      5  C5  LG1 d5015      31.002   8.458  49.144  0.00  0.00     0.012 A 
ATOM      6  C6  LG1 d5015      31.105   9.629  49.896  0.00  0.00     0.022 A 
ATOM      7  C7  LG1 d5015      30.104  10.598  49.820  0.00  0.00     0.039 A 
ATOM      8  C8  LG1 d5015      29.007  10.403  48.980  0.00  0.00     0.083 A 
ATOM      9  O1  LG1 d5015      28.053  11.386  48.966  0.00  0.00    -0.346 OA
ATOM     10  C9  LG1 d5015      27.337  11.460  47.729  0.00  0.00     0.218 C 
ATOM     11 BR1  LG1 d5015      32.374   7.160  49.231  0.00  0.00    -0.051 Br
ATOM     12  O2  LG1 d5015      27.489   7.905  46.870  0.00  0.00    -0.287 OA
ATOM     13  C10 LG1 d5015      25.519   9.950  46.887  0.00  0.00     0.025 C 
ENDROOT
BRANCH  13  14
ATOM     14  C11 LG1 d5015      24.541  10.987  46.753  0.00  0.00    -0.029 A 
ATOM     15  C14 LG1 d5015      24.357  11.696  45.586  0.00  0.00     0.061 A 
ATOM     16  S1  LG1 d5015      23.117  12.866  45.733  0.00  0.00    -0.113 SA
ATOM     17  C13 LG1 d5015      22.821  12.427  47.362  0.00  0.00     0.050 A 
ATOM     18  C12 LG1 d5015      23.649  11.411  47.782  0.00  0.00     0.019 A 
ENDBRANCH  13  14
TORSDOF 1
ENDMDL
