REMARK INTER + INTRA:          -6.339
REMARK INTER:                  -6.312
REMARK INTRA:                  -0.027
REMARK UNBOUND:                -0.124
REMARK  1 active torsions:
REMARK  status: ('A' for Active; 'I' for Inactive)
REMARK    1  A    between atoms: C10_13  and  C11_14 
ROOT
ATOM      1  C1  LG1 d5015      28.389  10.205  47.404  0.00  0.00     0.018 C 
ATOM      2  C2  LG1 d5015      28.328   8.785  47.831  0.00  0.00     0.193 C 
ATOM      3  C3  LG1 d5015      29.147   8.467  49.020  0.00  0.00     0.049 A 
ATOM      4  C4  LG1 d5015      29.265   7.146  49.456  0.00  0.00     0.037 A 
ATOM      5  C5  LG1 d5015      29.990   6.863  50.614  0.00  0.00     0.012 A 
ATOM      6  C6  LG1 d5015      30.587   7.894  51.340  0.00  0.00     0.022 A 
ATOM      7  C7  LG1 d5015      30.465   9.215  50.906  0.00  0.00     0.039 A 
ATOM      8  C8  LG1 d5015      29.760   9.502  49.737  0.00  0.00     0.083 A 
ATOM      9  O1  LG1 d5015      29.665  10.820  49.378  0.00  0.00    -0.346 OA
ATOM     10  C9  LG1 d5015      29.515  11.011  47.967  0.00  0.00     0.218 C 
ATOM     11 BR1  LG1 d5015      30.180   5.072  51.193  0.00  0.00    -0.051 Br
ATOM     12  O2  LG1 d5015      27.664   7.933  47.259  0.00  0.00    -0.287 OA
ATOM     13  C10 LG1 d5015      27.465  10.677  46.558  0.00  0.00     0.025 C 
ENDROOT
BRANCH  13  14
ATOM     14  C11 LG1 d5015      27.418  12.025  46.076  0.00  0.00    -0.029 A 
ATOM     15  C14 LG1 d5015      26.407  12.901  46.403  0.00  0.00     0.061 A 
ATOM     16  S1  LG1 d5015      26.628  14.436  45.677  0.00  0.00    -0.113 SA
ATOM     17  C13 LG1 d5015      28.079  13.931  44.922  0.00  0.00     0.050 A 
ATOM     18  C12 LG1 d5015      28.387  12.622  45.219  0.00  0.00     0.019 A 
ENDBRANCH  13  14
TORSDOF 1
ENDMDL
