REMARK INTER + INTRA:          -5.979
REMARK INTER:                  -5.809
REMARK INTRA:                  -0.170
REMARK UNBOUND:                -0.165
REMARK  1 active torsions:
REMARK  status: ('A' for Active; 'I' for Inactive)
REMARK    1  A    between atoms: C10_13  and  C11_14 
ROOT
ATOM      1  C1  LG1 d5015      27.362   9.891  47.489  0.00  0.00     0.018 C 
ATOM      2  C2  LG1 d5015      28.186   8.682  47.739  0.00  0.00     0.193 C 
ATOM      3  C3  LG1 d5015      29.319   8.894  48.663  0.00  0.00     0.049 A 
ATOM      4  C4  LG1 d5015      30.236   7.866  48.894  0.00  0.00     0.037 A 
ATOM      5  C5  LG1 d5015      31.268   8.055  49.814  0.00  0.00     0.012 A 
ATOM      6  C6  LG1 d5015      31.379   9.259  50.510  0.00  0.00     0.022 A 
ATOM      7  C7  LG1 d5015      30.460  10.284  50.281  0.00  0.00     0.039 A 
ATOM      8  C8  LG1 d5015      29.440  10.110  49.347  0.00  0.00     0.083 A 
ATOM      9  O1  LG1 d5015      28.563  11.150  49.184  0.00  0.00    -0.346 OA
ATOM     10  C9  LG1 d5015      27.977  11.195  47.879  0.00  0.00     0.218 C 
ATOM     11 BR1  LG1 d5015      32.532   6.679  50.109  0.00  0.00    -0.051 Br
ATOM     12  O2  LG1 d5015      27.963   7.593  47.230  0.00  0.00    -0.287 OA
ATOM     13  C10 LG1 d5015      26.148   9.757  46.939  0.00  0.00     0.025 C 
ENDROOT
BRANCH  13  14
ATOM     14  C11 LG1 d5015      25.263  10.845  46.651  0.00  0.00    -0.029 A 
ATOM     15  C14 LG1 d5015      25.246  11.494  45.438  0.00  0.00     0.061 A 
ATOM     16  S1  LG1 d5015      24.081  12.748  45.396  0.00  0.00    -0.113 SA
ATOM     17  C13 LG1 d5015      23.594  12.424  47.005  0.00  0.00     0.050 A 
ATOM     18  C12 LG1 d5015      24.304  11.383  47.559  0.00  0.00     0.019 A 
ENDBRANCH  13  14
TORSDOF 1
ENDMDL
