REMARK INTER + INTRA:          -6.026
REMARK INTER:                  -5.859
REMARK INTRA:                  -0.167
REMARK UNBOUND:                -0.160
REMARK  1 active torsions:
REMARK  status: ('A' for Active; 'I' for Inactive)
REMARK    1  A    between atoms: C10_13  and  C11_14 
ROOT
ATOM      1  C1  LG1 d5015      27.247   9.982  47.510  0.00  0.00     0.018 C 
ATOM      2  C2  LG1 d5015      28.042   8.744  47.704  0.00  0.00     0.193 C 
ATOM      3  C3  LG1 d5015      29.225   8.906  48.575  0.00  0.00     0.049 A 
ATOM      4  C4  LG1 d5015      30.118   7.846  48.747  0.00  0.00     0.037 A 
ATOM      5  C5  LG1 d5015      31.199   7.988  49.618  0.00  0.00     0.012 A 
ATOM      6  C6  LG1 d5015      31.384   9.178  50.323  0.00  0.00     0.022 A 
ATOM      7  C7  LG1 d5015      30.489  10.236  50.153  0.00  0.00     0.039 A 
ATOM      8  C8  LG1 d5015      29.419  10.108  49.267  0.00  0.00     0.083 A 
ATOM      9  O1  LG1 d5015      28.570  11.177  49.161  0.00  0.00    -0.346 OA
ATOM     10  C9  LG1 d5015      27.924  11.261  47.887  0.00  0.00     0.218 C 
ATOM     11 BR1  LG1 d5015      32.430   6.567  49.833  0.00  0.00    -0.051 Br
ATOM     12  O2  LG1 d5015      27.759   7.670  47.194  0.00  0.00    -0.287 OA
ATOM     13  C10 LG1 d5015      26.005   9.896  47.019  0.00  0.00     0.025 C 
ENDROOT
BRANCH  13  14
ATOM     14  C11 LG1 d5015      25.143  11.016  46.789  0.00  0.00    -0.029 A 
ATOM     15  C14 LG1 d5015      25.043  11.645  45.569  0.00  0.00     0.061 A 
ATOM     16  S1  LG1 d5015      23.931  12.946  45.605  0.00  0.00    -0.113 SA
ATOM     17  C13 LG1 d5015      23.580  12.671  47.257  0.00  0.00     0.050 A 
ATOM     18  C12 LG1 d5015      24.294  11.611  47.768  0.00  0.00     0.019 A 
ENDBRANCH  13  14
TORSDOF 1
ENDMDL
