REMARK INTER + INTRA:          -6.186
REMARK INTER:                  -6.019
REMARK INTRA:                  -0.167
REMARK UNBOUND:                -0.165
REMARK  1 active torsions:
REMARK  status: ('A' for Active; 'I' for Inactive)
REMARK    1  A    between atoms: C10_13  and  C11_14 
ROOT
ATOM      1  C1  LG1 d5015      28.315  10.092  47.134  0.00  0.00     0.018 C 
ATOM      2  C2  LG1 d5015      26.942  10.000  46.579  0.00  0.00     0.193 C 
ATOM      3  C3  LG1 d5015      25.921  10.747  47.343  0.00  0.00     0.049 A 
ATOM      4  C4  LG1 d5015      24.573  10.651  46.990  0.00  0.00     0.037 A 
ATOM      5  C5  LG1 d5015      23.623  11.407  47.679  0.00  0.00     0.012 A 
ATOM      6  C6  LG1 d5015      24.017  12.263  48.708  0.00  0.00     0.022 A 
ATOM      7  C7  LG1 d5015      25.365  12.361  49.057  0.00  0.00     0.039 A 
ATOM      8  C8  LG1 d5015      26.316  11.592  48.387  0.00  0.00     0.083 A 
ATOM      9  O1  LG1 d5015      27.622  11.750  48.769  0.00  0.00    -0.346 OA
ATOM     10  C9  LG1 d5015      28.421  10.585  48.541  0.00  0.00     0.218 C 
ATOM     11 BR1  LG1 d5015      21.792  11.258  47.227  0.00  0.00    -0.051 Br
ATOM     12  O2  LG1 d5015      26.658   9.363  45.575  0.00  0.00    -0.287 OA
ATOM     13  C10 LG1 d5015      29.357   9.736  46.373  0.00  0.00     0.025 C 
ENDROOT
BRANCH  13  14
ATOM     14  C11 LG1 d5015      30.725   9.781  46.796  0.00  0.00    -0.029 A 
ATOM     15  C14 LG1 d5015      31.352   8.724  47.417  0.00  0.00     0.061 A 
ATOM     16  S1  LG1 d5015      32.982   9.078  47.799  0.00  0.00    -0.113 SA
ATOM     17  C13 LG1 d5015      32.854  10.651  47.134  0.00  0.00     0.050 A 
ATOM     18  C12 LG1 d5015      31.596  10.898  46.631  0.00  0.00     0.019 A 
ENDBRANCH  13  14
TORSDOF 1
ENDMDL
