REMARK INTER + INTRA:          -6.343
REMARK INTER:                  -6.302
REMARK INTRA:                  -0.041
REMARK UNBOUND:                -0.165
REMARK  1 active torsions:
REMARK  status: ('A' for Active; 'I' for Inactive)
REMARK    1  A    between atoms: C10_13  and  C11_14 
ROOT
ATOM      1  C1  LG1 d5015      28.404  10.204  47.395  0.00  0.00     0.018 C 
ATOM      2  C2  LG1 d5015      28.345   8.791  47.847  0.00  0.00     0.193 C 
ATOM      3  C3  LG1 d5015      29.195   8.488  49.018  0.00  0.00     0.049 A 
ATOM      4  C4  LG1 d5015      29.317   7.173  49.473  0.00  0.00     0.037 A 
ATOM      5  C5  LG1 d5015      30.072   6.904  50.615  0.00  0.00     0.012 A 
ATOM      6  C6  LG1 d5015      30.696   7.943  51.306  0.00  0.00     0.022 A 
ATOM      7  C7  LG1 d5015      30.572   9.257  50.853  0.00  0.00     0.039 A 
ATOM      8  C8  LG1 d5015      29.836   9.529  49.700  0.00  0.00     0.083 A 
ATOM      9  O1  LG1 d5015      29.740  10.842  49.321  0.00  0.00    -0.346 OA
ATOM     10  C9  LG1 d5015      29.551  11.010  47.912  0.00  0.00     0.218 C 
ATOM     11 BR1  LG1 d5015      30.266   5.122  51.219  0.00  0.00    -0.051 Br
ATOM     12  O2  LG1 d5015      27.659   7.935  47.309  0.00  0.00    -0.287 OA
ATOM     13  C10 LG1 d5015      27.460  10.669  46.568  0.00  0.00     0.025 C 
ENDROOT
BRANCH  13  14
ATOM     14  C11 LG1 d5015      27.408  12.008  46.065  0.00  0.00    -0.029 A 
ATOM     15  C14 LG1 d5015      26.431  12.906  46.428  0.00  0.00     0.061 A 
ATOM     16  S1  LG1 d5015      26.636  14.424  45.664  0.00  0.00    -0.113 SA
ATOM     17  C13 LG1 d5015      28.037  13.884  44.843  0.00  0.00     0.050 A 
ATOM     18  C12 LG1 d5015      28.340  12.575  45.147  0.00  0.00     0.019 A 
ENDBRANCH  13  14
TORSDOF 1
ENDMDL
