REMARK INTER + INTRA:          -5.362
REMARK INTER:                  -5.164
REMARK INTRA:                  -0.198
REMARK UNBOUND:                -0.205
REMARK  1 active torsions:
REMARK  status: ('A' for Active; 'I' for Inactive)
REMARK    1  A    between atoms: C1_1  and  N1_10 
ROOT
ATOM      1  C1  LG1 d5015      28.464   9.629  47.588  0.00  0.00     0.056 A 
ATOM      2  C2  LG1 d5015      27.890   8.431  47.162  0.00  0.00    -0.033 A 
ATOM      3  C3  LG1 d5015      28.055   7.271  47.919  0.00  0.00     0.028 A 
ATOM      4  C4  LG1 d5015      28.791   7.309  49.103  0.00  0.00     0.012 A 
ATOM      5  C5  LG1 d5015      29.367   8.508  49.529  0.00  0.00     0.028 A 
ATOM      6  C6  LG1 d5015      29.202   9.666  48.771  0.00  0.00    -0.033 A 
ATOM      7  C7  LG1 d5015      29.829  10.934  49.253  0.00  0.00     0.050 C 
ATOM      8 BR1  LG1 d5015      29.015   5.736  50.128  0.00  0.00    -0.051 Br
ATOM      9  C8  LG1 d5015      27.094   8.360  45.899  0.00  0.00     0.050 C 
ENDROOT
BRANCH   1  10
ATOM     10  N1  LG1 d5015      28.294  10.823  46.810  0.00  0.00    -0.265 N 
ATOM     11  C11 LG1 d5015      27.196  11.677  46.916  0.00  0.00     0.148 C 
ATOM     12  S2  LG1 d5015      25.961  11.719  48.049  0.00  0.00    -0.052 SA
ATOM     13  S1  LG1 d5015      27.293  12.911  45.665  0.00  0.00    -0.090 SA
ATOM     14  C10 LG1 d5015      28.962  12.470  45.185  0.00  0.00     0.185 C 
ATOM     15  C9  LG1 d5015      29.271  11.167  45.864  0.00  0.00     0.239 C 
ATOM     16  O1  LG1 d5015      30.273  10.525  45.560  0.00  0.00    -0.272 OA
ENDBRANCH   1  10
TORSDOF 1
ENDMDL
