REMARK  3 active torsions:
REMARK  status: ('A' for Active; 'I' for Inactive)
REMARK    1  A    between atoms: C3_3  and  S1_15 
REMARK    2  A    between atoms: C6_6  and  C7_7 
REMARK    3  A    between atoms: S1_15  and  N1_10 
ROOT
ATOM      1  C1  <0> d  11      -1.326   3.328   0.032  0.00  0.00     0.020 A 
ATOM      2  C2  <0> d  11      -2.534   3.995   0.036  0.00  0.00     0.026 A 
ATOM      3  C3  <0> d  11      -3.720   3.284   0.037  0.00  0.00     0.079 A 
ATOM      4  C4  <0> d  11      -3.705   1.900   0.030  0.00  0.00     0.026 A 
ATOM      5  C5  <0> d  11      -2.505   1.220   0.021  0.00  0.00     0.020 A 
ATOM      6  C6  <0> d  11      -1.304   1.932   0.019  0.00  0.00     0.040 A 
ENDROOT
BRANCH   3   7
ATOM      7  S1  <0> d  11      -5.258   4.144   0.049  0.00  0.00     0.256 S 
ATOM      8  O2  <0> d  11      -5.887   3.868  -1.195  0.00  0.00    -0.201 OA
ATOM      9  O3  <0> d  11      -5.876   3.855   1.296  0.00  0.00    -0.201 OA
BRANCH   7  10
ATOM     10  N1  <0> d  11      -4.913   5.763   0.056  0.00  0.00    -0.324 N 
ATOM     11  H5  <0> d  11      -5.526   6.391  -0.358  0.00  0.00     0.169 HD
ATOM     12  H6  <0> d  11      -4.099   6.084   0.474  0.00  0.00     0.169 HD
ENDBRANCH   7  10
ENDBRANCH   3   7
BRANCH   6  13
ATOM     13  C7  <0> d  11      -0.014   1.210   0.009  0.00  0.00     0.209 C 
ATOM     14  O1  <0> d  11       1.029   1.832   0.012  0.00  0.00    -0.644 OA
ATOM     15  O4  <0> d  11       0.004  -0.137   0.001  0.00  0.00    -0.644 OA
ENDBRANCH   6  13
TORSDOF 3
