REMARK  2 active torsions:
REMARK  status: ('A' for Active; 'I' for Inactive)
REMARK    1  A    between atoms: C4_4  and  C6_6 
REMARK    2  A    between atoms: C6_6  and  N1_20 
ROOT
ATOM      1  C7  <0> d  11       0.930  -0.647   0.741  0.00  0.00     0.052 A 
ATOM      2  C8  <0> d  11       0.811  -2.019   0.893  0.00  0.00     0.031 A 
ATOM      3  C9  <0> d  11      -0.350  -2.661   0.501  0.00  0.00     0.002 A 
ATOM      4  C10 <0> d  11      -1.397  -1.943  -0.044  0.00  0.00     0.002 A 
ATOM      5  C11 <0> d  11      -1.290  -0.570  -0.200  0.00  0.00     0.021 A 
ATOM      6  C12 <0> d  11      -0.133   0.075   0.191  0.00  0.00     0.032 A 
ATOM      7  C13 <0> d  11       1.778   2.018  -0.187  0.00  0.00     0.032 A 
ATOM      8  C14 <0> d  11       2.629   1.080   0.404  0.00  0.00     0.052 A 
ATOM      9  C15 <0> d  11       4.000   1.223   0.261  0.00  0.00     0.031 A 
ATOM     10  C16 <0> d  11       4.513   2.285  -0.462  0.00  0.00     0.002 A 
ATOM     11  C17 <0> d  11       3.667   3.210  -1.045  0.00  0.00     0.002 A 
ATOM     12  C18 <0> d  11       2.295   3.077  -0.908  0.00  0.00     0.021 A 
ATOM     13  N1  <0> d  11       2.102   0.008   1.133  0.00  0.00    -0.344 N 
ATOM     14  S1  <0> d  11       0.033   1.823   0.005  0.00  0.00    -0.086 SA
ENDROOT
BRANCH  13  15
ATOM     15  C6  <0> d  11       2.800  -0.442   2.340  0.00  0.00     0.136 C 
BRANCH  15  16
ATOM     16  C4  <0> d  11       2.571  -1.942   2.531  0.00  0.00     0.031 C 
ATOM     17  C3  <0> d  11       3.126  -2.741   1.323  0.00  0.00     0.035 C 
ATOM     18  C2  <0> d  11       3.424  -4.118   1.967  0.00  0.00     0.234 C 
ATOM     19  N2  <0> d  11       3.935  -3.789   3.313  0.00  0.00    -0.074 N 
ATOM     20  C1  <0> d  11       3.515  -4.830   4.288  0.00  0.00     0.269 C 
ATOM     21  C5  <0> d  11       3.407  -2.475   3.714  0.00  0.00     0.240 C 
ATOM     22  H21 <0> d  11       4.960  -3.750   3.286  0.00  0.00     0.279 HD
ENDBRANCH  15  16
ENDBRANCH  13  15
TORSDOF 2
