REMARK INTER + INTRA:          -6.381
REMARK INTER:                  -6.178
REMARK INTRA:                  -0.202
REMARK UNBOUND:                -0.202
REMARK  1 active torsions:
REMARK  status: ('A' for Active; 'I' for Inactive)
REMARK    1  A    between atoms: C7_7  and  C4_4 
ROOT
ATOM      1  C1  LG1 d5015      43.750  11.528  58.361  0.00  0.00    -0.004 C 
ATOM      2  C2  LG1 d5015      43.853  12.974  58.856  0.00  0.00    -0.001 C 
ATOM      3  C3  LG1 d5015      45.238  13.295  59.533  0.00  0.00    -0.030 C 
ATOM      4  C4  LG1 d5015      45.012  14.817  59.818  0.00  0.00     0.063 C 
ATOM      5  C5  LG1 d5015      44.252  15.358  58.556  0.00  0.00     0.013 C 
ATOM      6  C6  LG1 d5015      43.669  14.103  57.812  0.00  0.00     0.006 C 
ATOM      7  C9  LG1 d5015      46.460  13.114  58.566  0.00  0.00     0.016 C 
ATOM      8  C10 LG1 d5015      45.322  12.381  60.776  0.00  0.00     0.011 C 
ATOM      9  C11 LG1 d5015      45.207  10.883  60.380  0.00  0.00     0.007 C 
ATOM     10  C12 LG1 d5015      43.903  10.582  59.597  0.00  0.00     0.002 C 
ATOM     11  C13 LG1 d5015      43.795   9.058  59.219  0.00  0.00    -0.016 C 
ATOM     12  C14 LG1 d5015      42.454   8.833  58.410  0.00  0.00    -0.068 C 
ATOM     13  C15 LG1 d5015      41.601   7.856  58.661  0.00  0.00     0.053 C 
ATOM     14  C16 LG1 d5015      41.894   6.820  59.639  0.00  0.00     0.149 C 
ATOM     15  C17 LG1 d5015      43.252   6.786  60.333  0.00  0.00     0.084 C 
ATOM     16  C18 LG1 d5015      43.766   8.233  60.533  0.00  0.00     0.022 C 
ATOM     17  O2  LG1 d5015      41.072   5.914  59.863  0.00  0.00    -0.293 OA
ATOM     18  C19 LG1 d5015      42.122   9.825  57.300  0.00  0.00     0.035 C 
ATOM     19  C20 LG1 d5015      42.353  11.286  57.733  0.00  0.00     0.010 C 
ATOM     20  C21 LG1 d5015      44.967   8.584  58.276  0.00  0.00     0.020 C 
ENDROOT
BRANCH   4  21
ATOM     21  C7  LG1 d5015      46.280  15.598  60.200  0.00  0.00     0.128 C 
ATOM     22  O1  LG1 d5015      46.866  15.343  61.230  0.00  0.00    -0.298 OA
ATOM     23  C8  LG1 d5015      46.786  16.665  59.292  0.00  0.00     0.091 C 
ENDBRANCH   4  21
TORSDOF 1
ENDMDL
