REMARK INTER + INTRA:          -5.937
REMARK INTER:                  -5.732
REMARK INTRA:                  -0.204
REMARK UNBOUND:                -0.204
REMARK  1 active torsions:
REMARK  status: ('A' for Active; 'I' for Inactive)
REMARK    1  A    between atoms: C7_7  and  C4_4 
ROOT
ATOM      1  C1  LG1 d5015      42.560   8.619  58.432  0.00  0.00    -0.004 C 
ATOM      2  C2  LG1 d5015      43.461   7.384  58.541  0.00  0.00    -0.001 C 
ATOM      3  C3  LG1 d5015      44.026   7.163  59.994  0.00  0.00    -0.030 C 
ATOM      4  C4  LG1 d5015      44.793   5.822  59.744  0.00  0.00     0.063 C 
ATOM      5  C5  LG1 d5015      43.865   4.995  58.786  0.00  0.00     0.013 C 
ATOM      6  C6  LG1 d5015      42.848   6.015  58.157  0.00  0.00     0.006 C 
ATOM      7  C9  LG1 d5015      42.906   6.938  61.070  0.00  0.00     0.016 C 
ATOM      8  C10 LG1 d5015      44.905   8.396  60.298  0.00  0.00     0.011 C 
ATOM      9  C11 LG1 d5015      44.084   9.711  60.193  0.00  0.00     0.007 C 
ATOM     10  C12 LG1 d5015      43.414   9.875  58.804  0.00  0.00     0.002 C 
ATOM     11  C13 LG1 d5015      42.600  11.219  58.711  0.00  0.00    -0.016 C 
ATOM     12  C14 LG1 d5015      41.934  11.306  57.278  0.00  0.00    -0.068 C 
ATOM     13  C15 LG1 d5015      41.975  12.383  56.515  0.00  0.00     0.053 C 
ATOM     14  C16 LG1 d5015      42.541  13.636  56.992  0.00  0.00     0.149 C 
ATOM     15  C17 LG1 d5015      43.016  13.759  58.437  0.00  0.00     0.084 C 
ATOM     16  C18 LG1 d5015      43.588  12.399  58.910  0.00  0.00     0.022 C 
ATOM     17  O2  LG1 d5015      42.574  14.635  56.252  0.00  0.00    -0.293 OA
ATOM     18  C19 LG1 d5015      41.236  10.060  56.745  0.00  0.00     0.035 C 
ATOM     19  C20 LG1 d5015      42.066   8.782  56.971  0.00  0.00     0.010 C 
ATOM     20  C21 LG1 d5015      41.419  11.285  59.754  0.00  0.00     0.020 C 
ENDROOT
BRANCH   4  21
ATOM     21  C7  LG1 d5015      45.238   5.084  61.018  0.00  0.00     0.128 C 
ATOM     22  O1  LG1 d5015      46.094   5.561  61.731  0.00  0.00    -0.298 OA
ATOM     23  C8  LG1 d5015      44.603   3.784  61.372  0.00  0.00     0.091 C 
ENDBRANCH   4  21
TORSDOF 1
ENDMDL
