REMARK INTER + INTRA:          -6.208
REMARK INTER:                  -6.089
REMARK INTRA:                  -0.119
REMARK UNBOUND:                -0.119
REMARK  1 active torsions:
REMARK  status: ('A' for Active; 'I' for Inactive)
REMARK    1  A    between atoms: C7_7  and  C4_4 
ROOT
ATOM      1  C1  LG1 d5015      43.599   9.745  59.022  0.00  0.00    -0.004 C 
ATOM      2  C2  LG1 d5015      43.632  11.200  58.543  0.00  0.00    -0.001 C 
ATOM      3  C3  LG1 d5015      42.199  11.789  58.268  0.00  0.00    -0.030 C 
ATOM      4  C4  LG1 d5015      42.614  13.252  57.898  0.00  0.00     0.063 C 
ATOM      5  C5  LG1 d5015      43.778  13.607  58.889  0.00  0.00     0.013 C 
ATOM      6  C6  LG1 d5015      44.302  12.244  59.470  0.00  0.00     0.006 C 
ATOM      7  C9  LG1 d5015      41.278  11.807  59.539  0.00  0.00     0.016 C 
ATOM      8  C10 LG1 d5015      41.608  10.945  57.117  0.00  0.00     0.011 C 
ATOM      9  C11 LG1 d5015      41.549   9.439  57.498  0.00  0.00     0.007 C 
ATOM     10  C12 LG1 d5015      42.940   8.881  57.897  0.00  0.00     0.002 C 
ATOM     11  C13 LG1 d5015      42.865   7.353  58.264  0.00  0.00    -0.016 C 
ATOM     12  C14 LG1 d5015      44.312   6.861  58.676  0.00  0.00    -0.068 C 
ATOM     13  C15 LG1 d5015      44.867   5.753  58.220  0.00  0.00     0.053 C 
ATOM     14  C16 LG1 d5015      44.130   4.818  57.385  0.00  0.00     0.149 C 
ATOM     15  C17 LG1 d5015      42.651   5.054  57.094  0.00  0.00     0.084 C 
ATOM     16  C18 LG1 d5015      42.377   6.576  57.012  0.00  0.00     0.022 C 
ATOM     17  O2  LG1 d5015      44.677   3.784  56.962  0.00  0.00    -0.293 OA
ATOM     18  C19 LG1 d5015      45.114   7.742  59.628  0.00  0.00     0.035 C 
ATOM     19  C20 LG1 d5015      45.045   9.233  59.244  0.00  0.00     0.010 C 
ATOM     20  C21 LG1 d5015      41.932   7.073  59.504  0.00  0.00     0.020 C 
ENDROOT
BRANCH   4  21
ATOM     21  C7  LG1 d5015      41.456  14.264  57.864  0.00  0.00     0.128 C 
ATOM     22  O1  LG1 d5015      40.744  14.343  56.886  0.00  0.00    -0.298 OA
ATOM     23  C8  LG1 d5015      41.213  15.140  59.044  0.00  0.00     0.091 C 
ENDBRANCH   4  21
TORSDOF 1
ENDMDL
