REMARK INTER + INTRA:          -5.933
REMARK INTER:                  -5.794
REMARK INTRA:                  -0.139
REMARK UNBOUND:                -0.139
REMARK  1 active torsions:
REMARK  status: ('A' for Active; 'I' for Inactive)
REMARK    1  A    between atoms: C7_7  and  C4_4 
ROOT
ATOM      1  C1  LG1 d5015      42.711   8.748  58.170  0.00  0.00    -0.004 C 
ATOM      2  C2  LG1 d5015      43.491   7.438  58.321  0.00  0.00    -0.001 C 
ATOM      3  C3  LG1 d5015      43.773   7.060  59.823  0.00  0.00    -0.030 C 
ATOM      4  C4  LG1 d5015      44.478   5.683  59.588  0.00  0.00     0.063 C 
ATOM      5  C5  LG1 d5015      43.681   5.012  58.416  0.00  0.00     0.013 C 
ATOM      6  C6  LG1 d5015      42.864   6.158  57.716  0.00  0.00     0.006 C 
ATOM      7  C9  LG1 d5015      42.467   6.848  60.667  0.00  0.00     0.016 C 
ATOM      8  C10 LG1 d5015      44.667   8.189  60.382  0.00  0.00     0.011 C 
ATOM      9  C11 LG1 d5015      43.969   9.572  60.257  0.00  0.00     0.007 C 
ATOM     10  C12 LG1 d5015      43.570   9.897  58.794  0.00  0.00     0.002 C 
ATOM     11  C13 LG1 d5015      42.879  11.307  58.684  0.00  0.00    -0.016 C 
ATOM     12  C14 LG1 d5015      42.486  11.559  57.172  0.00  0.00    -0.068 C 
ATOM     13  C15 LG1 d5015      42.736  12.684  56.527  0.00  0.00     0.053 C 
ATOM     14  C16 LG1 d5015      43.291  13.845  57.205  0.00  0.00     0.149 C 
ATOM     15  C17 LG1 d5015      43.510  13.817  58.715  0.00  0.00     0.084 C 
ATOM     16  C18 LG1 d5015      43.895  12.383  59.154  0.00  0.00     0.022 C 
ATOM     17  O2  LG1 d5015      43.524  14.891  56.574  0.00  0.00    -0.293 OA
ATOM     18  C19 LG1 d5015      41.809  10.419  56.418  0.00  0.00     0.035 C 
ATOM     19  C20 LG1 d5015      42.497   9.063  56.667  0.00  0.00     0.010 C 
ATOM     20  C21 LG1 d5015      41.539  11.391  59.511  0.00  0.00     0.020 C 
ENDROOT
BRANCH   4  21
ATOM     21  C7  LG1 d5015      44.638   4.816  60.848  0.00  0.00     0.128 C 
ATOM     22  O1  LG1 d5015      44.012   3.784  60.961  0.00  0.00    -0.298 OA
ATOM     23  C8  LG1 d5015      45.574   5.249  61.924  0.00  0.00     0.091 C 
ENDBRANCH   4  21
TORSDOF 1
ENDMDL
