REMARK INTER + INTRA:          -6.551
REMARK INTER:                  -6.347
REMARK INTRA:                  -0.204
REMARK UNBOUND:                -0.132
REMARK  1 active torsions:
REMARK  status: ('A' for Active; 'I' for Inactive)
REMARK    1  A    between atoms: C7_7  and  C4_4 
ROOT
ATOM      1  C1  LG1 d5015      44.234   9.381  58.797  0.00  0.00    -0.004 C 
ATOM      2  C2  LG1 d5015      44.915   8.379  59.735  0.00  0.00    -0.001 C 
ATOM      3  C3  LG1 d5015      44.109   7.035  59.887  0.00  0.00    -0.030 C 
ATOM      4  C4  LG1 d5015      45.114   6.263  60.806  0.00  0.00     0.063 C 
ATOM      5  C5  LG1 d5015      46.536   6.639  60.260  0.00  0.00     0.013 C 
ATOM      6  C6  LG1 d5015      46.351   7.925  59.376  0.00  0.00     0.006 C 
ATOM      7  C9  LG1 d5015      43.930   6.260  58.534  0.00  0.00     0.016 C 
ATOM      8  C10 LG1 d5015      42.761   7.420  60.535  0.00  0.00     0.011 C 
ATOM      9  C11 LG1 d5015      41.996   8.456  59.665  0.00  0.00     0.007 C 
ATOM     10  C12 LG1 d5015      42.834   9.733  59.401  0.00  0.00     0.002 C 
ATOM     11  C13 LG1 d5015      42.038  10.776  58.532  0.00  0.00    -0.016 C 
ATOM     12  C14 LG1 d5015      42.960  12.040  58.290  0.00  0.00    -0.068 C 
ATOM     13  C15 LG1 d5015      42.554  13.286  58.451  0.00  0.00     0.053 C 
ATOM     14  C16 LG1 d5015      41.166  13.604  58.748  0.00  0.00     0.149 C 
ATOM     15  C17 LG1 d5015      40.118  12.495  58.786  0.00  0.00     0.084 C 
ATOM     16  C18 LG1 d5015      40.765  11.192  59.318  0.00  0.00     0.022 C 
ATOM     17  O2  LG1 d5015      40.809  14.785  58.901  0.00  0.00    -0.293 OA
ATOM     18  C19 LG1 d5015      44.408  11.790  57.881  0.00  0.00     0.035 C 
ATOM     19  C20 LG1 d5015      45.072  10.683  58.722  0.00  0.00     0.010 C 
ATOM     20  C21 LG1 d5015      41.667  10.218  57.105  0.00  0.00     0.020 C 
ENDROOT
BRANCH   4  21
ATOM     21  C7  LG1 d5015      44.843   4.755  60.938  0.00  0.00     0.128 C 
ATOM     22  O1  LG1 d5015      43.863   4.361  61.534  0.00  0.00    -0.298 OA
ATOM     23  C8  LG1 d5015      45.789   3.784  60.322  0.00  0.00     0.091 C 
ENDBRANCH   4  21
TORSDOF 1
ENDMDL
