REMARK INTER + INTRA:          -6.232
REMARK INTER:                  -6.100
REMARK INTRA:                  -0.132
REMARK UNBOUND:                -0.132
REMARK  1 active torsions:
REMARK  status: ('A' for Active; 'I' for Inactive)
REMARK    1  A    between atoms: C7_7  and  C4_4 
ROOT
ATOM      1  C1  LG1 d5015      43.567   9.726  59.183  0.00  0.00    -0.004 C 
ATOM      2  C2  LG1 d5015      43.623  11.187  58.722  0.00  0.00    -0.001 C 
ATOM      3  C3  LG1 d5015      42.206  11.772  58.364  0.00  0.00    -0.030 C 
ATOM      4  C4  LG1 d5015      42.636  13.241  58.037  0.00  0.00     0.063 C 
ATOM      5  C5  LG1 d5015      43.733  13.590  59.103  0.00  0.00     0.013 C 
ATOM      6  C6  LG1 d5015      44.227  12.223  59.701  0.00  0.00     0.006 C 
ATOM      7  C9  LG1 d5015      41.207  11.771  59.575  0.00  0.00     0.016 C 
ATOM      8  C10 LG1 d5015      41.693  10.938  57.169  0.00  0.00     0.011 C 
ATOM      9  C11 LG1 d5015      41.619   9.428  57.530  0.00  0.00     0.007 C 
ATOM     10  C12 LG1 d5015      42.984   8.871  58.009  0.00  0.00     0.002 C 
ATOM     11  C13 LG1 d5015      42.894   7.339  58.354  0.00  0.00    -0.016 C 
ATOM     12  C14 LG1 d5015      44.315   6.850  58.851  0.00  0.00    -0.068 C 
ATOM     13  C15 LG1 d5015      44.904   5.749  58.420  0.00  0.00     0.053 C 
ATOM     14  C16 LG1 d5015      44.225   4.820  57.529  0.00  0.00     0.149 C 
ATOM     15  C17 LG1 d5015      42.766   5.052  57.148  0.00  0.00     0.084 C 
ATOM     16  C18 LG1 d5015      42.491   6.574  57.065  0.00  0.00     0.022 C 
ATOM     17  O2  LG1 d5015      44.804   3.793  57.131  0.00  0.00    -0.293 OA
ATOM     18  C19 LG1 d5015      45.051   7.723  59.862  0.00  0.00     0.035 C 
ATOM     19  C20 LG1 d5015      44.999   9.218  59.490  0.00  0.00     0.010 C 
ATOM     20  C21 LG1 d5015      41.886   7.041  59.530  0.00  0.00     0.020 C 
ENDROOT
BRANCH   4  21
ATOM     21  C7  LG1 d5015      41.477  14.248  57.941  0.00  0.00     0.128 C 
ATOM     22  O1  LG1 d5015      40.812  14.318  56.929  0.00  0.00    -0.298 OA
ATOM     23  C8  LG1 d5015      41.174  15.130  59.101  0.00  0.00     0.091 C 
ENDBRANCH   4  21
TORSDOF 1
ENDMDL
