REMARK INTER + INTRA:          -6.540
REMARK INTER:                  -6.337
REMARK INTRA:                  -0.203
REMARK UNBOUND:                -0.119
REMARK  1 active torsions:
REMARK  status: ('A' for Active; 'I' for Inactive)
REMARK    1  A    between atoms: C7_7  and  C4_4 
ROOT
ATOM      1  C1  LG1 d5015      44.226   9.382  58.795  0.00  0.00    -0.004 C 
ATOM      2  C2  LG1 d5015      44.897   8.382  59.742  0.00  0.00    -0.001 C 
ATOM      3  C3  LG1 d5015      44.077   7.049  59.910  0.00  0.00    -0.030 C 
ATOM      4  C4  LG1 d5015      45.074   6.276  60.836  0.00  0.00     0.063 C 
ATOM      5  C5  LG1 d5015      46.499   6.629  60.282  0.00  0.00     0.013 C 
ATOM      6  C6  LG1 d5015      46.327   7.907  59.385  0.00  0.00     0.006 C 
ATOM      7  C9  LG1 d5015      43.886   6.261  58.566  0.00  0.00     0.016 C 
ATOM      8  C10 LG1 d5015      42.735   7.457  60.557  0.00  0.00     0.011 C 
ATOM      9  C11 LG1 d5015      41.979   8.492  59.677  0.00  0.00     0.007 C 
ATOM     10  C12 LG1 d5015      42.831   9.757  59.397  0.00  0.00     0.002 C 
ATOM     11  C13 LG1 d5015      42.046  10.799  58.519  0.00  0.00    -0.016 C 
ATOM     12  C14 LG1 d5015      42.982  12.049  58.261  0.00  0.00    -0.068 C 
ATOM     13  C15 LG1 d5015      42.590  13.302  58.408  0.00  0.00     0.053 C 
ATOM     14  C16 LG1 d5015      41.207  13.638  58.705  0.00  0.00     0.149 C 
ATOM     15  C17 LG1 d5015      40.147  12.542  58.758  0.00  0.00     0.084 C 
ATOM     16  C18 LG1 d5015      40.780  11.238  59.303  0.00  0.00     0.022 C 
ATOM     17  O2  LG1 d5015      40.864  14.826  58.846  0.00  0.00    -0.293 OA
ATOM     18  C19 LG1 d5015      44.426  11.778  57.851  0.00  0.00     0.035 C 
ATOM     19  C20 LG1 d5015      45.079  10.673  58.703  0.00  0.00     0.010 C 
ATOM     20  C21 LG1 d5015      41.665  10.230  57.098  0.00  0.00     0.020 C 
ENDROOT
BRANCH   4  21
ATOM     21  C7  LG1 d5015      44.786   4.773  60.985  0.00  0.00     0.128 C 
ATOM     22  O1  LG1 d5015      43.799   4.396  61.579  0.00  0.00    -0.298 OA
ATOM     23  C8  LG1 d5015      45.725   3.784  60.386  0.00  0.00     0.091 C 
ENDBRANCH   4  21
TORSDOF 1
ENDMDL
