REMARK INTER + INTRA:          -6.550
REMARK INTER:                  -6.346
REMARK INTRA:                  -0.204
REMARK UNBOUND:                -0.139
REMARK  1 active torsions:
REMARK  status: ('A' for Active; 'I' for Inactive)
REMARK    1  A    between atoms: C7_7  and  C4_4 
ROOT
ATOM      1  C1  LG1 d5015      44.236   9.403  58.794  0.00  0.00    -0.004 C 
ATOM      2  C2  LG1 d5015      44.898   8.392  59.736  0.00  0.00    -0.001 C 
ATOM      3  C3  LG1 d5015      44.071   7.061  59.888  0.00  0.00    -0.030 C 
ATOM      4  C4  LG1 d5015      45.059   6.276  60.813  0.00  0.00     0.063 C 
ATOM      5  C5  LG1 d5015      46.489   6.627  60.270  0.00  0.00     0.013 C 
ATOM      6  C6  LG1 d5015      46.327   7.914  59.382  0.00  0.00     0.006 C 
ATOM      7  C9  LG1 d5015      43.883   6.286  58.537  0.00  0.00     0.016 C 
ATOM      8  C10 LG1 d5015      42.727   7.470  60.531  0.00  0.00     0.011 C 
ATOM      9  C11 LG1 d5015      41.980   8.515  59.657  0.00  0.00     0.007 C 
ATOM     10  C12 LG1 d5015      42.840   9.779  59.392  0.00  0.00     0.002 C 
ATOM     11  C13 LG1 d5015      42.063  10.833  58.519  0.00  0.00    -0.016 C 
ATOM     12  C14 LG1 d5015      43.007  12.080  58.277  0.00  0.00    -0.068 C 
ATOM     13  C15 LG1 d5015      42.620  13.333  58.434  0.00  0.00     0.053 C 
ATOM     14  C16 LG1 d5015      41.236  13.674  58.726  0.00  0.00     0.149 C 
ATOM     15  C17 LG1 d5015      40.171  12.582  58.763  0.00  0.00     0.084 C 
ATOM     16  C18 LG1 d5015      40.795  11.270  59.300  0.00  0.00     0.022 C 
ATOM     17  O2  LG1 d5015      40.898  14.862  58.876  0.00  0.00    -0.293 OA
ATOM     18  C19 LG1 d5015      44.451  11.807  57.873  0.00  0.00     0.035 C 
ATOM     19  C20 LG1 d5015      45.095  10.691  58.718  0.00  0.00     0.010 C 
ATOM     20  C21 LG1 d5015      41.688  10.278  57.092  0.00  0.00     0.020 C 
ENDROOT
BRANCH   4  21
ATOM     21  C7  LG1 d5015      44.764   4.773  60.947  0.00  0.00     0.128 C 
ATOM     22  O1  LG1 d5015      43.765   4.397  61.522  0.00  0.00    -0.298 OA
ATOM     23  C8  LG1 d5015      45.710   3.784  60.357  0.00  0.00     0.091 C 
ENDBRANCH   4  21
TORSDOF 1
ENDMDL
