REMARK INTER + INTRA:          -6.471
REMARK INTER:                  -6.278
REMARK INTRA:                  -0.193
REMARK UNBOUND:                -0.132
REMARK  1 active torsions:
REMARK  status: ('A' for Active; 'I' for Inactive)
REMARK    1  A    between atoms: C7_7  and  C4_4 
ROOT
ATOM      1  C1  LG1 d5015      44.330  12.393  59.841  0.00  0.00    -0.004 C 
ATOM      2  C2  LG1 d5015      45.525  13.244  59.399  0.00  0.00    -0.001 C 
ATOM      3  C3  LG1 d5015      45.115  14.436  58.456  0.00  0.00    -0.030 C 
ATOM      4  C4  LG1 d5015      46.523  15.100  58.293  0.00  0.00     0.063 C 
ATOM      5  C5  LG1 d5015      47.187  14.997  59.710  0.00  0.00     0.013 C 
ATOM      6  C6  LG1 d5015      46.378  13.910  60.507  0.00  0.00     0.006 C 
ATOM      7  C9  LG1 d5015      44.127  15.452  59.129  0.00  0.00     0.016 C 
ATOM      8  C10 LG1 d5015      44.525  13.786  57.185  0.00  0.00     0.011 C 
ATOM      9  C11 LG1 d5015      43.311  12.880  57.530  0.00  0.00     0.007 C 
ATOM     10  C12 LG1 d5015      43.674  11.779  58.560  0.00  0.00     0.002 C 
ATOM     11  C13 LG1 d5015      42.438  10.862  58.886  0.00  0.00    -0.016 C 
ATOM     12  C14 LG1 d5015      42.879   9.780  59.953  0.00  0.00    -0.068 C 
ATOM     13  C15 LG1 d5015      42.606   8.492  59.848  0.00  0.00     0.053 C 
ATOM     14  C16 LG1 d5015      41.756   7.977  58.786  0.00  0.00     0.149 C 
ATOM     15  C17 LG1 d5015      41.076   8.938  57.816  0.00  0.00     0.084 C 
ATOM     16  C18 LG1 d5015      41.994  10.162  57.574  0.00  0.00     0.022 C 
ATOM     17  O2  LG1 d5015      41.519   6.758  58.704  0.00  0.00    -0.293 OA
ATOM     18  C19 LG1 d5015      43.694  10.259  61.150  0.00  0.00     0.035 C 
ATOM     19  C20 LG1 d5015      44.818  11.230  60.742  0.00  0.00     0.010 C 
ATOM     20  C21 LG1 d5015      41.244  11.663  59.534  0.00  0.00     0.020 C 
ENDROOT
BRANCH   4  21
ATOM     21  C7  LG1 d5015      46.506  16.511  57.682  0.00  0.00     0.128 C 
ATOM     22  O1  LG1 d5015      46.074  16.686  56.562  0.00  0.00    -0.298 OA
ATOM     23  C8  LG1 d5015      47.016  17.662  58.478  0.00  0.00     0.091 C 
ENDBRANCH   4  21
TORSDOF 1
ENDMDL
