MODEL 1
REMARK VINA RESULT:    -6.238      0.000      0.000
REMARK INTER + INTRA:          -6.722
REMARK INTER:                  -6.572
REMARK INTRA:                  -0.150
REMARK UNBOUND:                -0.119
REMARK  1 active torsions:
REMARK  status: ('A' for Active; 'I' for Inactive)
REMARK    1  A    between atoms: C7_7  and  C4_4 
ROOT
ATOM      1  C1  LG1 d5015      42.589   8.274  58.825  0.00  0.00    -0.004 C 
ATOM      2  C2  LG1 d5015      41.899   9.640  58.900  0.00  0.00    -0.001 C 
ATOM      3  C3  LG1 d5015      42.839  10.827  58.469  0.00  0.00    -0.030 C 
ATOM      4  C4  LG1 d5015      41.806  11.997  58.585  0.00  0.00     0.063 C 
ATOM      5  C5  LG1 d5015      40.459  11.405  58.039  0.00  0.00     0.013 C 
ATOM      6  C6  LG1 d5015      40.618   9.842  58.056  0.00  0.00     0.006 C 
ATOM      7  C9  LG1 d5015      43.345  10.714  56.987  0.00  0.00     0.016 C 
ATOM      8  C10 LG1 d5015      43.996  10.845  59.493  0.00  0.00     0.011 C 
ATOM      9  C11 LG1 d5015      44.752   9.488  59.509  0.00  0.00     0.007 C 
ATOM     10  C12 LG1 d5015      43.808   8.294  59.806  0.00  0.00     0.002 C 
ATOM     11  C13 LG1 d5015      44.593   6.930  59.834  0.00  0.00    -0.016 C 
ATOM     12  C14 LG1 d5015      43.565   5.762  60.123  0.00  0.00    -0.068 C 
ATOM     13  C15 LG1 d5015      43.769   4.810  61.015  0.00  0.00     0.053 C 
ATOM     14  C16 LG1 d5015      45.033   4.688  61.725  0.00  0.00     0.149 C 
ATOM     15  C17 LG1 d5015      46.197   5.612  61.380  0.00  0.00     0.084 C 
ATOM     16  C18 LG1 d5015      45.649   7.001  60.970  0.00  0.00     0.022 C 
ATOM     17  O2  LG1 d5015      45.199   3.785  62.565  0.00  0.00    -0.293 OA
ATOM     18  C19 LG1 d5015      42.253   5.766  59.346  0.00  0.00     0.035 C 
ATOM     19  C20 LG1 d5015      41.610   7.165  59.289  0.00  0.00     0.010 C 
ATOM     20  C21 LG1 d5015      45.270   6.593  58.450  0.00  0.00     0.020 C 
ENDROOT
BRANCH   4  21
ATOM     21  C7  LG1 d5015      42.249  13.318  57.934  0.00  0.00     0.128 C 
ATOM     22  O1  LG1 d5015      41.724  13.699  56.909  0.00  0.00    -0.298 OA
ATOM     23  C8  LG1 d5015      43.320  14.130  58.577  0.00  0.00     0.091 C 
ENDBRANCH   4  21
TORSDOF 1
ENDMDL
MODEL 2
REMARK VINA RESULT:    -6.066      1.361      7.185
REMARK INTER + INTRA:          -6.540
REMARK INTER:                  -6.337
REMARK INTRA:                  -0.203
REMARK UNBOUND:                -0.119
REMARK  1 active torsions:
REMARK  status: ('A' for Active; 'I' for Inactive)
REMARK    1  A    between atoms: C7_7  and  C4_4 
ROOT
ATOM      1  C1  LG1 d5015      44.226   9.382  58.795  0.00  0.00    -0.004 C 
ATOM      2  C2  LG1 d5015      44.897   8.382  59.742  0.00  0.00    -0.001 C 
ATOM      3  C3  LG1 d5015      44.077   7.049  59.910  0.00  0.00    -0.030 C 
ATOM      4  C4  LG1 d5015      45.074   6.276  60.836  0.00  0.00     0.063 C 
ATOM      5  C5  LG1 d5015      46.499   6.629  60.282  0.00  0.00     0.013 C 
ATOM      6  C6  LG1 d5015      46.327   7.907  59.385  0.00  0.00     0.006 C 
ATOM      7  C9  LG1 d5015      43.886   6.261  58.566  0.00  0.00     0.016 C 
ATOM      8  C10 LG1 d5015      42.735   7.457  60.557  0.00  0.00     0.011 C 
ATOM      9  C11 LG1 d5015      41.979   8.492  59.677  0.00  0.00     0.007 C 
ATOM     10  C12 LG1 d5015      42.831   9.757  59.397  0.00  0.00     0.002 C 
ATOM     11  C13 LG1 d5015      42.046  10.799  58.519  0.00  0.00    -0.016 C 
ATOM     12  C14 LG1 d5015      42.982  12.049  58.261  0.00  0.00    -0.068 C 
ATOM     13  C15 LG1 d5015      42.590  13.302  58.408  0.00  0.00     0.053 C 
ATOM     14  C16 LG1 d5015      41.207  13.638  58.705  0.00  0.00     0.149 C 
ATOM     15  C17 LG1 d5015      40.147  12.542  58.758  0.00  0.00     0.084 C 
ATOM     16  C18 LG1 d5015      40.780  11.238  59.303  0.00  0.00     0.022 C 
ATOM     17  O2  LG1 d5015      40.864  14.826  58.846  0.00  0.00    -0.293 OA
ATOM     18  C19 LG1 d5015      44.426  11.778  57.851  0.00  0.00     0.035 C 
ATOM     19  C20 LG1 d5015      45.079  10.673  58.703  0.00  0.00     0.010 C 
ATOM     20  C21 LG1 d5015      41.665  10.230  57.098  0.00  0.00     0.020 C 
ENDROOT
BRANCH   4  21
ATOM     21  C7  LG1 d5015      44.786   4.773  60.985  0.00  0.00     0.128 C 
ATOM     22  O1  LG1 d5015      43.799   4.396  61.579  0.00  0.00    -0.298 OA
ATOM     23  C8  LG1 d5015      45.725   3.784  60.386  0.00  0.00     0.091 C 
ENDBRANCH   4  21
TORSDOF 1
ENDMDL
MODEL 3
REMARK VINA RESULT:    -5.959      3.061      5.466
REMARK INTER + INTRA:          -6.427
REMARK INTER:                  -6.295
REMARK INTRA:                  -0.132
REMARK UNBOUND:                -0.119
REMARK  1 active torsions:
REMARK  status: ('A' for Active; 'I' for Inactive)
REMARK    1  A    between atoms: C7_7  and  C4_4 
ROOT
ATOM      1  C1  LG1 d5015      44.296  12.430  59.731  0.00  0.00    -0.004 C 
ATOM      2  C2  LG1 d5015      45.483  13.285  59.272  0.00  0.00    -0.001 C 
ATOM      3  C3  LG1 d5015      45.055  14.476  58.336  0.00  0.00    -0.030 C 
ATOM      4  C4  LG1 d5015      46.458  15.144  58.152  0.00  0.00     0.063 C 
ATOM      5  C5  LG1 d5015      47.145  15.041  59.559  0.00  0.00     0.013 C 
ATOM      6  C6  LG1 d5015      46.351  13.951  60.367  0.00  0.00     0.006 C 
ATOM      7  C9  LG1 d5015      44.075  15.489  59.027  0.00  0.00     0.016 C 
ATOM      8  C10 LG1 d5015      44.447  13.826  57.074  0.00  0.00     0.011 C 
ATOM      9  C11 LG1 d5015      43.240  12.917  57.437  0.00  0.00     0.007 C 
ATOM     10  C12 LG1 d5015      43.622  11.816  58.460  0.00  0.00     0.002 C 
ATOM     11  C13 LG1 d5015      42.393  10.896  58.804  0.00  0.00    -0.016 C 
ATOM     12  C14 LG1 d5015      42.854   9.814  59.863  0.00  0.00    -0.068 C 
ATOM     13  C15 LG1 d5015      42.582   8.525  59.760  0.00  0.00     0.053 C 
ATOM     14  C16 LG1 d5015      41.717   8.009  58.711  0.00  0.00     0.149 C 
ATOM     15  C17 LG1 d5015      41.020   8.970  57.753  0.00  0.00     0.084 C 
ATOM     16  C18 LG1 d5015      41.930  10.196  57.498  0.00  0.00     0.022 C 
ATOM     17  O2  LG1 d5015      41.482   6.790  58.631  0.00  0.00    -0.293 OA
ATOM     18  C19 LG1 d5015      43.686  10.293  61.047  0.00  0.00     0.035 C 
ATOM     19  C20 LG1 d5015      44.801  11.267  60.623  0.00  0.00     0.010 C 
ATOM     20  C21 LG1 d5015      41.207  11.693  59.471  0.00  0.00     0.020 C 
ENDROOT
BRANCH   4  21
ATOM     21  C7  LG1 d5015      46.428  16.556  57.543  0.00  0.00     0.128 C 
ATOM     22  O1  LG1 d5015      46.766  17.513  58.206  0.00  0.00    -0.298 OA
ATOM     23  C8  LG1 d5015      45.991  16.736  56.131  0.00  0.00     0.091 C 
ENDBRANCH   4  21
TORSDOF 1
ENDMDL
MODEL 4
REMARK VINA RESULT:    -5.945      2.538      4.085
REMARK INTER + INTRA:          -6.412
REMARK INTER:                  -6.267
REMARK INTRA:                  -0.144
REMARK UNBOUND:                -0.119
REMARK  1 active torsions:
REMARK  status: ('A' for Active; 'I' for Inactive)
REMARK    1  A    between atoms: C7_7  and  C4_4 
ROOT
ATOM      1  C1  LG1 d5015      43.726  11.532  58.383  0.00  0.00    -0.004 C 
ATOM      2  C2  LG1 d5015      43.810  12.981  58.872  0.00  0.00    -0.001 C 
ATOM      3  C3  LG1 d5015      45.179  13.315  59.573  0.00  0.00    -0.030 C 
ATOM      4  C4  LG1 d5015      44.937  14.837  59.845  0.00  0.00     0.063 C 
ATOM      5  C5  LG1 d5015      44.197  15.366  58.567  0.00  0.00     0.013 C 
ATOM      6  C6  LG1 d5015      43.636  14.103  57.819  0.00  0.00     0.006 C 
ATOM      7  C9  LG1 d5015      46.421  13.139  58.630  0.00  0.00     0.016 C 
ATOM      8  C10 LG1 d5015      45.247  12.409  60.822  0.00  0.00     0.011 C 
ATOM      9  C11 LG1 d5015      45.150  10.908  60.432  0.00  0.00     0.007 C 
ATOM     10  C12 LG1 d5015      43.863  10.593  59.627  0.00  0.00     0.002 C 
ATOM     11  C13 LG1 d5015      43.773   9.067  59.255  0.00  0.00    -0.016 C 
ATOM     12  C14 LG1 d5015      42.449   8.828  58.422  0.00  0.00    -0.068 C 
ATOM     13  C15 LG1 d5015      41.599   7.846  58.663  0.00  0.00     0.053 C 
ATOM     14  C16 LG1 d5015      41.881   6.817  59.651  0.00  0.00     0.149 C 
ATOM     15  C17 LG1 d5015      43.227   6.796  60.371  0.00  0.00     0.084 C 
ATOM     16  C18 LG1 d5015      43.726   8.248  60.573  0.00  0.00     0.022 C 
ATOM     17  O2  LG1 d5015      41.061   5.906  59.865  0.00  0.00    -0.293 OA
ATOM     18  C19 LG1 d5015      42.130   9.812  57.301  0.00  0.00     0.035 C 
ATOM     19  C20 LG1 d5015      42.343  11.276  57.730  0.00  0.00     0.010 C 
ATOM     20  C21 LG1 d5015      44.966   8.596  58.337  0.00  0.00     0.020 C 
ENDROOT
BRANCH   4  21
ATOM     21  C7  LG1 d5015      46.192  15.630  60.247  0.00  0.00     0.128 C 
ATOM     22  O1  LG1 d5015      46.756  16.332  59.435  0.00  0.00    -0.298 OA
ATOM     23  C8  LG1 d5015      46.703  15.535  61.643  0.00  0.00     0.091 C 
ENDBRANCH   4  21
TORSDOF 1
ENDMDL
MODEL 5
REMARK VINA RESULT:    -5.752      1.985      3.433
REMARK INTER + INTRA:          -6.208
REMARK INTER:                  -6.089
REMARK INTRA:                  -0.119
REMARK UNBOUND:                -0.119
REMARK  1 active torsions:
REMARK  status: ('A' for Active; 'I' for Inactive)
REMARK    1  A    between atoms: C7_7  and  C4_4 
ROOT
ATOM      1  C1  LG1 d5015      43.599   9.745  59.022  0.00  0.00    -0.004 C 
ATOM      2  C2  LG1 d5015      43.632  11.200  58.543  0.00  0.00    -0.001 C 
ATOM      3  C3  LG1 d5015      42.199  11.789  58.268  0.00  0.00    -0.030 C 
ATOM      4  C4  LG1 d5015      42.614  13.252  57.898  0.00  0.00     0.063 C 
ATOM      5  C5  LG1 d5015      43.778  13.607  58.889  0.00  0.00     0.013 C 
ATOM      6  C6  LG1 d5015      44.302  12.244  59.470  0.00  0.00     0.006 C 
ATOM      7  C9  LG1 d5015      41.278  11.807  59.539  0.00  0.00     0.016 C 
ATOM      8  C10 LG1 d5015      41.608  10.945  57.117  0.00  0.00     0.011 C 
ATOM      9  C11 LG1 d5015      41.549   9.439  57.498  0.00  0.00     0.007 C 
ATOM     10  C12 LG1 d5015      42.940   8.881  57.897  0.00  0.00     0.002 C 
ATOM     11  C13 LG1 d5015      42.865   7.353  58.264  0.00  0.00    -0.016 C 
ATOM     12  C14 LG1 d5015      44.312   6.861  58.676  0.00  0.00    -0.068 C 
ATOM     13  C15 LG1 d5015      44.867   5.753  58.220  0.00  0.00     0.053 C 
ATOM     14  C16 LG1 d5015      44.130   4.818  57.385  0.00  0.00     0.149 C 
ATOM     15  C17 LG1 d5015      42.651   5.054  57.094  0.00  0.00     0.084 C 
ATOM     16  C18 LG1 d5015      42.377   6.576  57.012  0.00  0.00     0.022 C 
ATOM     17  O2  LG1 d5015      44.677   3.784  56.962  0.00  0.00    -0.293 OA
ATOM     18  C19 LG1 d5015      45.114   7.742  59.628  0.00  0.00     0.035 C 
ATOM     19  C20 LG1 d5015      45.045   9.233  59.244  0.00  0.00     0.010 C 
ATOM     20  C21 LG1 d5015      41.932   7.073  59.504  0.00  0.00     0.020 C 
ENDROOT
BRANCH   4  21
ATOM     21  C7  LG1 d5015      41.456  14.264  57.864  0.00  0.00     0.128 C 
ATOM     22  O1  LG1 d5015      40.744  14.343  56.886  0.00  0.00    -0.298 OA
ATOM     23  C8  LG1 d5015      41.213  15.140  59.044  0.00  0.00     0.091 C 
ENDBRANCH   4  21
TORSDOF 1
ENDMDL
