MODEL 1
REMARK VINA RESULT:    -6.243      0.000      0.000
REMARK INTER + INTRA:          -6.740
REMARK INTER:                  -6.538
REMARK INTRA:                  -0.202
REMARK UNBOUND:                -0.132
REMARK  1 active torsions:
REMARK  status: ('A' for Active; 'I' for Inactive)
REMARK    1  A    between atoms: C7_7  and  C4_4 
ROOT
ATOM      1  C1  LG1 d5015      42.566   8.560  58.808  0.00  0.00    -0.004 C 
ATOM      2  C2  LG1 d5015      41.881   9.912  59.037  0.00  0.00    -0.001 C 
ATOM      3  C3  LG1 d5015      42.794  11.135  58.653  0.00  0.00    -0.030 C 
ATOM      4  C4  LG1 d5015      41.770  12.286  58.927  0.00  0.00     0.063 C 
ATOM      5  C5  LG1 d5015      40.394  11.736  58.413  0.00  0.00     0.013 C 
ATOM      6  C6  LG1 d5015      40.553  10.177  58.289  0.00  0.00     0.006 C 
ATOM      7  C9  LG1 d5015      43.213  11.149  57.140  0.00  0.00     0.016 C 
ATOM      8  C10 LG1 d5015      44.009  11.073  59.606  0.00  0.00     0.011 C 
ATOM      9  C11 LG1 d5015      44.765   9.722  59.463  0.00  0.00     0.007 C 
ATOM     10  C12 LG1 d5015      43.840   8.503  59.714  0.00  0.00     0.002 C 
ATOM     11  C13 LG1 d5015      44.625   7.146  59.582  0.00  0.00    -0.016 C 
ATOM     12  C14 LG1 d5015      43.615   5.953  59.831  0.00  0.00    -0.068 C 
ATOM     13  C15 LG1 d5015      43.871   4.930  60.626  0.00  0.00     0.053 C 
ATOM     14  C16 LG1 d5015      45.174   4.755  61.249  0.00  0.00     0.149 C 
ATOM     15  C17 LG1 d5015      46.316   5.710  60.915  0.00  0.00     0.084 C 
ATOM     16  C18 LG1 d5015      45.745   7.126  60.656  0.00  0.00     0.022 C 
ATOM     17  O2  LG1 d5015      45.389   3.786  61.999  0.00  0.00    -0.293 OA
ATOM     18  C19 LG1 d5015      42.260   6.016  59.135  0.00  0.00     0.035 C 
ATOM     19  C20 LG1 d5015      41.615   7.412  59.233  0.00  0.00     0.010 C 
ATOM     20  C21 LG1 d5015      45.220   6.929  58.137  0.00  0.00     0.020 C 
ENDROOT
BRANCH   4  21
ATOM     21  C7  LG1 d5015      42.174  13.660  58.364  0.00  0.00     0.128 C 
ATOM     22  O1  LG1 d5015      43.160  14.226  58.788  0.00  0.00    -0.298 OA
ATOM     23  C8  LG1 d5015      41.351  14.284  57.291  0.00  0.00     0.091 C 
ENDBRANCH   4  21
TORSDOF 1
ENDMDL
MODEL 2
REMARK VINA RESULT:    -6.064      1.282      7.203
REMARK INTER + INTRA:          -6.551
REMARK INTER:                  -6.347
REMARK INTRA:                  -0.204
REMARK UNBOUND:                -0.132
REMARK  1 active torsions:
REMARK  status: ('A' for Active; 'I' for Inactive)
REMARK    1  A    between atoms: C7_7  and  C4_4 
ROOT
ATOM      1  C1  LG1 d5015      44.234   9.381  58.797  0.00  0.00    -0.004 C 
ATOM      2  C2  LG1 d5015      44.915   8.379  59.735  0.00  0.00    -0.001 C 
ATOM      3  C3  LG1 d5015      44.109   7.035  59.887  0.00  0.00    -0.030 C 
ATOM      4  C4  LG1 d5015      45.114   6.263  60.806  0.00  0.00     0.063 C 
ATOM      5  C5  LG1 d5015      46.536   6.639  60.260  0.00  0.00     0.013 C 
ATOM      6  C6  LG1 d5015      46.351   7.925  59.376  0.00  0.00     0.006 C 
ATOM      7  C9  LG1 d5015      43.930   6.260  58.534  0.00  0.00     0.016 C 
ATOM      8  C10 LG1 d5015      42.761   7.420  60.535  0.00  0.00     0.011 C 
ATOM      9  C11 LG1 d5015      41.996   8.456  59.665  0.00  0.00     0.007 C 
ATOM     10  C12 LG1 d5015      42.834   9.733  59.401  0.00  0.00     0.002 C 
ATOM     11  C13 LG1 d5015      42.038  10.776  58.532  0.00  0.00    -0.016 C 
ATOM     12  C14 LG1 d5015      42.960  12.040  58.290  0.00  0.00    -0.068 C 
ATOM     13  C15 LG1 d5015      42.554  13.286  58.451  0.00  0.00     0.053 C 
ATOM     14  C16 LG1 d5015      41.166  13.604  58.748  0.00  0.00     0.149 C 
ATOM     15  C17 LG1 d5015      40.118  12.495  58.786  0.00  0.00     0.084 C 
ATOM     16  C18 LG1 d5015      40.765  11.192  59.318  0.00  0.00     0.022 C 
ATOM     17  O2  LG1 d5015      40.809  14.785  58.901  0.00  0.00    -0.293 OA
ATOM     18  C19 LG1 d5015      44.408  11.790  57.881  0.00  0.00     0.035 C 
ATOM     19  C20 LG1 d5015      45.072  10.683  58.722  0.00  0.00     0.010 C 
ATOM     20  C21 LG1 d5015      41.667  10.218  57.105  0.00  0.00     0.020 C 
ENDROOT
BRANCH   4  21
ATOM     21  C7  LG1 d5015      44.843   4.755  60.938  0.00  0.00     0.128 C 
ATOM     22  O1  LG1 d5015      43.863   4.361  61.534  0.00  0.00    -0.298 OA
ATOM     23  C8  LG1 d5015      45.789   3.784  60.322  0.00  0.00     0.091 C 
ENDBRANCH   4  21
TORSDOF 1
ENDMDL
MODEL 3
REMARK VINA RESULT:    -5.988      3.181      5.283
REMARK INTER + INTRA:          -6.471
REMARK INTER:                  -6.278
REMARK INTRA:                  -0.193
REMARK UNBOUND:                -0.132
REMARK  1 active torsions:
REMARK  status: ('A' for Active; 'I' for Inactive)
REMARK    1  A    between atoms: C7_7  and  C4_4 
ROOT
ATOM      1  C1  LG1 d5015      44.330  12.393  59.841  0.00  0.00    -0.004 C 
ATOM      2  C2  LG1 d5015      45.525  13.244  59.399  0.00  0.00    -0.001 C 
ATOM      3  C3  LG1 d5015      45.115  14.436  58.456  0.00  0.00    -0.030 C 
ATOM      4  C4  LG1 d5015      46.523  15.100  58.293  0.00  0.00     0.063 C 
ATOM      5  C5  LG1 d5015      47.187  14.997  59.710  0.00  0.00     0.013 C 
ATOM      6  C6  LG1 d5015      46.378  13.910  60.507  0.00  0.00     0.006 C 
ATOM      7  C9  LG1 d5015      44.127  15.452  59.129  0.00  0.00     0.016 C 
ATOM      8  C10 LG1 d5015      44.525  13.786  57.185  0.00  0.00     0.011 C 
ATOM      9  C11 LG1 d5015      43.311  12.880  57.530  0.00  0.00     0.007 C 
ATOM     10  C12 LG1 d5015      43.674  11.779  58.560  0.00  0.00     0.002 C 
ATOM     11  C13 LG1 d5015      42.438  10.862  58.886  0.00  0.00    -0.016 C 
ATOM     12  C14 LG1 d5015      42.879   9.780  59.953  0.00  0.00    -0.068 C 
ATOM     13  C15 LG1 d5015      42.606   8.492  59.848  0.00  0.00     0.053 C 
ATOM     14  C16 LG1 d5015      41.756   7.977  58.786  0.00  0.00     0.149 C 
ATOM     15  C17 LG1 d5015      41.076   8.938  57.816  0.00  0.00     0.084 C 
ATOM     16  C18 LG1 d5015      41.994  10.162  57.574  0.00  0.00     0.022 C 
ATOM     17  O2  LG1 d5015      41.519   6.758  58.704  0.00  0.00    -0.293 OA
ATOM     18  C19 LG1 d5015      43.694  10.259  61.150  0.00  0.00     0.035 C 
ATOM     19  C20 LG1 d5015      44.818  11.230  60.742  0.00  0.00     0.010 C 
ATOM     20  C21 LG1 d5015      41.244  11.663  59.534  0.00  0.00     0.020 C 
ENDROOT
BRANCH   4  21
ATOM     21  C7  LG1 d5015      46.506  16.511  57.682  0.00  0.00     0.128 C 
ATOM     22  O1  LG1 d5015      46.074  16.686  56.562  0.00  0.00    -0.298 OA
ATOM     23  C8  LG1 d5015      47.016  17.662  58.478  0.00  0.00     0.091 C 
ENDBRANCH   4  21
TORSDOF 1
ENDMDL
MODEL 4
REMARK VINA RESULT:    -5.978      1.672      2.325
REMARK INTER + INTRA:          -6.460
REMARK INTER:                  -6.323
REMARK INTRA:                  -0.137
REMARK UNBOUND:                -0.132
REMARK  1 active torsions:
REMARK  status: ('A' for Active; 'I' for Inactive)
REMARK    1  A    between atoms: C7_7  and  C4_4 
ROOT
ATOM      1  C1  LG1 d5015      42.884  10.343  58.475  0.00  0.00    -0.004 C 
ATOM      2  C2  LG1 d5015      42.786  11.834  58.817  0.00  0.00    -0.001 C 
ATOM      3  C3  LG1 d5015      44.171  12.577  58.724  0.00  0.00    -0.030 C 
ATOM      4  C4  LG1 d5015      43.678  14.029  59.041  0.00  0.00     0.063 C 
ATOM      5  C5  LG1 d5015      42.304  14.163  58.294  0.00  0.00     0.013 C 
ATOM      6  C6  LG1 d5015      41.829  12.702  57.964  0.00  0.00     0.006 C 
ATOM      7  C9  LG1 d5015      44.805  12.536  57.289  0.00  0.00     0.016 C 
ATOM      8  C10 LG1 d5015      45.074  11.924  59.793  0.00  0.00     0.011 C 
ATOM      9  C11 LG1 d5015      45.223  10.397  59.546  0.00  0.00     0.007 C 
ATOM     10  C12 LG1 d5015      43.851   9.673  59.506  0.00  0.00     0.002 C 
ATOM     11  C13 LG1 d5015      44.022   8.127  59.271  0.00  0.00    -0.016 C 
ATOM     12  C14 LG1 d5015      42.586   7.463  59.224  0.00  0.00    -0.068 C 
ATOM     13  C15 LG1 d5015      42.262   6.367  59.886  0.00  0.00     0.053 C 
ATOM     14  C16 LG1 d5015      43.255   5.602  60.625  0.00  0.00     0.149 C 
ATOM     15  C17 LG1 d5015      44.726   6.002  60.571  0.00  0.00     0.084 C 
ATOM     16  C18 LG1 d5015      44.837   7.543  60.455  0.00  0.00     0.022 C 
ATOM     17  O2  LG1 d5015      42.924   4.576  61.247  0.00  0.00    -0.293 OA
ATOM     18  C19 LG1 d5015      41.513   8.155  58.390  0.00  0.00     0.035 C 
ATOM     19  C20 LG1 d5015      41.490   9.680  58.614  0.00  0.00     0.010 C 
ATOM     20  C21 LG1 d5015      44.708   7.796  57.890  0.00  0.00     0.020 C 
ENDROOT
BRANCH   4  21
ATOM     21  C7  LG1 d5015      44.697  15.139  58.735  0.00  0.00     0.128 C 
ATOM     22  O1  LG1 d5015      44.621  15.769  57.702  0.00  0.00    -0.298 OA
ATOM     23  C8  LG1 d5015      45.772  15.440  59.721  0.00  0.00     0.091 C 
ENDBRANCH   4  21
TORSDOF 1
ENDMDL
MODEL 5
REMARK VINA RESULT:    -5.763      1.846      3.235
REMARK INTER + INTRA:          -6.232
REMARK INTER:                  -6.100
REMARK INTRA:                  -0.132
REMARK UNBOUND:                -0.132
REMARK  1 active torsions:
REMARK  status: ('A' for Active; 'I' for Inactive)
REMARK    1  A    between atoms: C7_7  and  C4_4 
ROOT
ATOM      1  C1  LG1 d5015      43.567   9.726  59.183  0.00  0.00    -0.004 C 
ATOM      2  C2  LG1 d5015      43.623  11.187  58.722  0.00  0.00    -0.001 C 
ATOM      3  C3  LG1 d5015      42.206  11.772  58.364  0.00  0.00    -0.030 C 
ATOM      4  C4  LG1 d5015      42.636  13.241  58.037  0.00  0.00     0.063 C 
ATOM      5  C5  LG1 d5015      43.733  13.590  59.103  0.00  0.00     0.013 C 
ATOM      6  C6  LG1 d5015      44.227  12.223  59.701  0.00  0.00     0.006 C 
ATOM      7  C9  LG1 d5015      41.207  11.771  59.575  0.00  0.00     0.016 C 
ATOM      8  C10 LG1 d5015      41.693  10.938  57.169  0.00  0.00     0.011 C 
ATOM      9  C11 LG1 d5015      41.619   9.428  57.530  0.00  0.00     0.007 C 
ATOM     10  C12 LG1 d5015      42.984   8.871  58.009  0.00  0.00     0.002 C 
ATOM     11  C13 LG1 d5015      42.894   7.339  58.354  0.00  0.00    -0.016 C 
ATOM     12  C14 LG1 d5015      44.315   6.850  58.851  0.00  0.00    -0.068 C 
ATOM     13  C15 LG1 d5015      44.904   5.749  58.420  0.00  0.00     0.053 C 
ATOM     14  C16 LG1 d5015      44.225   4.820  57.529  0.00  0.00     0.149 C 
ATOM     15  C17 LG1 d5015      42.766   5.052  57.148  0.00  0.00     0.084 C 
ATOM     16  C18 LG1 d5015      42.491   6.574  57.065  0.00  0.00     0.022 C 
ATOM     17  O2  LG1 d5015      44.804   3.793  57.131  0.00  0.00    -0.293 OA
ATOM     18  C19 LG1 d5015      45.051   7.723  59.862  0.00  0.00     0.035 C 
ATOM     19  C20 LG1 d5015      44.999   9.218  59.490  0.00  0.00     0.010 C 
ATOM     20  C21 LG1 d5015      41.886   7.041  59.530  0.00  0.00     0.020 C 
ENDROOT
BRANCH   4  21
ATOM     21  C7  LG1 d5015      41.477  14.248  57.941  0.00  0.00     0.128 C 
ATOM     22  O1  LG1 d5015      40.812  14.318  56.929  0.00  0.00    -0.298 OA
ATOM     23  C8  LG1 d5015      41.174  15.130  59.101  0.00  0.00     0.091 C 
ENDBRANCH   4  21
TORSDOF 1
ENDMDL
