REMARK INTER + INTRA:          -6.492
REMARK INTER:                  -6.397
REMARK INTRA:                  -0.095
REMARK UNBOUND:                -0.139
REMARK  1 active torsions:
REMARK  status: ('A' for Active; 'I' for Inactive)
REMARK    1  A    between atoms: C7_7  and  C4_4 
ROOT
ATOM      1  C1  LG1 d5015      42.830  10.201  58.366  0.00  0.00    -0.004 C 
ATOM      2  C2  LG1 d5015      42.655  11.694  58.665  0.00  0.00    -0.001 C 
ATOM      3  C3  LG1 d5015      44.010  12.494  58.607  0.00  0.00    -0.030 C 
ATOM      4  C4  LG1 d5015      43.444  13.930  58.867  0.00  0.00     0.063 C 
ATOM      5  C5  LG1 d5015      42.096  13.987  58.065  0.00  0.00     0.013 C 
ATOM      6  C6  LG1 d5015      41.697  12.499  57.754  0.00  0.00     0.006 C 
ATOM      7  C9  LG1 d5015      44.702  12.446  57.199  0.00  0.00     0.016 C 
ATOM      8  C10 LG1 d5015      44.897  11.907  59.727  0.00  0.00     0.011 C 
ATOM      9  C11 LG1 d5015      45.119  10.382  59.525  0.00  0.00     0.007 C 
ATOM     10  C12 LG1 d5015      43.783   9.599  59.451  0.00  0.00     0.002 C 
ATOM     11  C13 LG1 d5015      44.027   8.056  59.262  0.00  0.00    -0.016 C 
ATOM     12  C14 LG1 d5015      42.623   7.330  59.177  0.00  0.00    -0.068 C 
ATOM     13  C15 LG1 d5015      42.321   6.237  59.855  0.00  0.00     0.053 C 
ATOM     14  C16 LG1 d5015      43.315   5.534  60.651  0.00  0.00     0.149 C 
ATOM     15  C17 LG1 d5015      44.769   5.996  60.642  0.00  0.00     0.084 C 
ATOM     16  C18 LG1 d5015      44.820   7.536  60.491  0.00  0.00     0.022 C 
ATOM     17  O2  LG1 d5015      43.004   4.510  61.285  0.00  0.00    -0.293 OA
ATOM     18  C19 LG1 d5015      41.556   7.955  58.285  0.00  0.00     0.035 C 
ATOM     19  C20 LG1 d5015      41.460   9.482  58.469  0.00  0.00     0.010 C 
ATOM     20  C21 LG1 d5015      44.781   7.722  57.918  0.00  0.00     0.020 C 
ENDROOT
BRANCH   4  21
ATOM     21  C7  LG1 d5015      44.426  15.076  58.572  0.00  0.00     0.128 C 
ATOM     22  O1  LG1 d5015      44.431  15.610  57.484  0.00  0.00    -0.298 OA
ATOM     23  C8  LG1 d5015      45.366  15.529  59.636  0.00  0.00     0.091 C 
ENDBRANCH   4  21
TORSDOF 1
ENDMDL
