REMARK INTER + INTRA:          -6.412
REMARK INTER:                  -6.267
REMARK INTRA:                  -0.144
REMARK UNBOUND:                -0.119
REMARK  1 active torsions:
REMARK  status: ('A' for Active; 'I' for Inactive)
REMARK    1  A    between atoms: C7_7  and  C4_4 
ROOT
ATOM      1  C1  LG1 d5015      43.726  11.532  58.383  0.00  0.00    -0.004 C 
ATOM      2  C2  LG1 d5015      43.810  12.981  58.872  0.00  0.00    -0.001 C 
ATOM      3  C3  LG1 d5015      45.179  13.315  59.573  0.00  0.00    -0.030 C 
ATOM      4  C4  LG1 d5015      44.937  14.837  59.845  0.00  0.00     0.063 C 
ATOM      5  C5  LG1 d5015      44.197  15.366  58.567  0.00  0.00     0.013 C 
ATOM      6  C6  LG1 d5015      43.636  14.103  57.819  0.00  0.00     0.006 C 
ATOM      7  C9  LG1 d5015      46.421  13.139  58.630  0.00  0.00     0.016 C 
ATOM      8  C10 LG1 d5015      45.247  12.409  60.822  0.00  0.00     0.011 C 
ATOM      9  C11 LG1 d5015      45.150  10.908  60.432  0.00  0.00     0.007 C 
ATOM     10  C12 LG1 d5015      43.863  10.593  59.627  0.00  0.00     0.002 C 
ATOM     11  C13 LG1 d5015      43.773   9.067  59.255  0.00  0.00    -0.016 C 
ATOM     12  C14 LG1 d5015      42.449   8.828  58.422  0.00  0.00    -0.068 C 
ATOM     13  C15 LG1 d5015      41.599   7.846  58.663  0.00  0.00     0.053 C 
ATOM     14  C16 LG1 d5015      41.881   6.817  59.651  0.00  0.00     0.149 C 
ATOM     15  C17 LG1 d5015      43.227   6.796  60.371  0.00  0.00     0.084 C 
ATOM     16  C18 LG1 d5015      43.726   8.248  60.573  0.00  0.00     0.022 C 
ATOM     17  O2  LG1 d5015      41.061   5.906  59.865  0.00  0.00    -0.293 OA
ATOM     18  C19 LG1 d5015      42.130   9.812  57.301  0.00  0.00     0.035 C 
ATOM     19  C20 LG1 d5015      42.343  11.276  57.730  0.00  0.00     0.010 C 
ATOM     20  C21 LG1 d5015      44.966   8.596  58.337  0.00  0.00     0.020 C 
ENDROOT
BRANCH   4  21
ATOM     21  C7  LG1 d5015      46.192  15.630  60.247  0.00  0.00     0.128 C 
ATOM     22  O1  LG1 d5015      46.756  16.332  59.435  0.00  0.00    -0.298 OA
ATOM     23  C8  LG1 d5015      46.703  15.535  61.643  0.00  0.00     0.091 C 
ENDBRANCH   4  21
TORSDOF 1
ENDMDL
