REMARK INTER + INTRA:          -6.740
REMARK INTER:                  -6.538
REMARK INTRA:                  -0.202
REMARK UNBOUND:                -0.132
REMARK  1 active torsions:
REMARK  status: ('A' for Active; 'I' for Inactive)
REMARK    1  A    between atoms: C7_7  and  C4_4 
ROOT
ATOM      1  C1  LG1 d5015      42.566   8.560  58.808  0.00  0.00    -0.004 C 
ATOM      2  C2  LG1 d5015      41.881   9.912  59.037  0.00  0.00    -0.001 C 
ATOM      3  C3  LG1 d5015      42.794  11.135  58.653  0.00  0.00    -0.030 C 
ATOM      4  C4  LG1 d5015      41.770  12.286  58.927  0.00  0.00     0.063 C 
ATOM      5  C5  LG1 d5015      40.394  11.736  58.413  0.00  0.00     0.013 C 
ATOM      6  C6  LG1 d5015      40.553  10.177  58.289  0.00  0.00     0.006 C 
ATOM      7  C9  LG1 d5015      43.213  11.149  57.140  0.00  0.00     0.016 C 
ATOM      8  C10 LG1 d5015      44.009  11.073  59.606  0.00  0.00     0.011 C 
ATOM      9  C11 LG1 d5015      44.765   9.722  59.463  0.00  0.00     0.007 C 
ATOM     10  C12 LG1 d5015      43.840   8.503  59.714  0.00  0.00     0.002 C 
ATOM     11  C13 LG1 d5015      44.625   7.146  59.582  0.00  0.00    -0.016 C 
ATOM     12  C14 LG1 d5015      43.615   5.953  59.831  0.00  0.00    -0.068 C 
ATOM     13  C15 LG1 d5015      43.871   4.930  60.626  0.00  0.00     0.053 C 
ATOM     14  C16 LG1 d5015      45.174   4.755  61.249  0.00  0.00     0.149 C 
ATOM     15  C17 LG1 d5015      46.316   5.710  60.915  0.00  0.00     0.084 C 
ATOM     16  C18 LG1 d5015      45.745   7.126  60.656  0.00  0.00     0.022 C 
ATOM     17  O2  LG1 d5015      45.389   3.786  61.999  0.00  0.00    -0.293 OA
ATOM     18  C19 LG1 d5015      42.260   6.016  59.135  0.00  0.00     0.035 C 
ATOM     19  C20 LG1 d5015      41.615   7.412  59.233  0.00  0.00     0.010 C 
ATOM     20  C21 LG1 d5015      45.220   6.929  58.137  0.00  0.00     0.020 C 
ENDROOT
BRANCH   4  21
ATOM     21  C7  LG1 d5015      42.174  13.660  58.364  0.00  0.00     0.128 C 
ATOM     22  O1  LG1 d5015      43.160  14.226  58.788  0.00  0.00    -0.298 OA
ATOM     23  C8  LG1 d5015      41.351  14.284  57.291  0.00  0.00     0.091 C 
ENDBRANCH   4  21
TORSDOF 1
ENDMDL
