REMARK INTER + INTRA:          -6.389
REMARK INTER:                  -6.185
REMARK INTRA:                  -0.204
REMARK UNBOUND:                -0.139
REMARK  1 active torsions:
REMARK  status: ('A' for Active; 'I' for Inactive)
REMARK    1  A    between atoms: C7_7  and  C4_4 
ROOT
ATOM      1  C1  LG1 d5015      43.681  11.638  58.410  0.00  0.00    -0.004 C 
ATOM      2  C2  LG1 d5015      43.824  13.063  58.957  0.00  0.00    -0.001 C 
ATOM      3  C3  LG1 d5015      45.247  13.346  59.567  0.00  0.00    -0.030 C 
ATOM      4  C4  LG1 d5015      45.051  14.857  59.926  0.00  0.00     0.063 C 
ATOM      5  C5  LG1 d5015      44.227  15.454  58.731  0.00  0.00     0.013 C 
ATOM      6  C6  LG1 d5015      43.591  14.233  57.971  0.00  0.00     0.006 C 
ATOM      7  C9  LG1 d5015      46.412  13.197  58.527  0.00  0.00     0.016 C 
ATOM      8  C10 LG1 d5015      45.393  12.383  60.766  0.00  0.00     0.011 C 
ATOM      9  C11 LG1 d5015      45.242  10.902  60.318  0.00  0.00     0.007 C 
ATOM     10  C12 LG1 d5015      43.894  10.642  59.598  0.00  0.00     0.002 C 
ATOM     11  C13 LG1 d5015      43.752   9.135  59.165  0.00  0.00    -0.016 C 
ATOM     12  C14 LG1 d5015      42.366   8.952  58.424  0.00  0.00    -0.068 C 
ATOM     13  C15 LG1 d5015      41.520   7.971  58.683  0.00  0.00     0.053 C 
ATOM     14  C16 LG1 d5015      41.858   6.894  59.600  0.00  0.00     0.149 C 
ATOM     15  C17 LG1 d5015      43.253   6.823  60.215  0.00  0.00     0.084 C 
ATOM     16  C18 LG1 d5015      43.790   8.257  60.445  0.00  0.00     0.022 C 
ATOM     17  O2  LG1 d5015      41.041   5.985  59.833  0.00  0.00    -0.293 OA
ATOM     18  C19 LG1 d5015      41.981   9.990  57.376  0.00  0.00     0.035 C 
ATOM     19  C20 LG1 d5015      42.249  11.431  57.853  0.00  0.00     0.010 C 
ATOM     20  C21 LG1 d5015      44.865   8.692  58.140  0.00  0.00     0.020 C 
ENDROOT
BRANCH   4  21
ATOM     21  C7  LG1 d5015      46.345  15.614  60.268  0.00  0.00     0.128 C 
ATOM     22  O1  LG1 d5015      46.980  15.320  61.258  0.00  0.00    -0.298 OA
ATOM     23  C8  LG1 d5015      46.815  16.706  59.370  0.00  0.00     0.091 C 
ENDBRANCH   4  21
TORSDOF 1
ENDMDL
