REMARK INTER + INTRA:          -6.548
REMARK INTER:                  -6.345
REMARK INTRA:                  -0.203
REMARK UNBOUND:                -0.204
REMARK  1 active torsions:
REMARK  status: ('A' for Active; 'I' for Inactive)
REMARK    1  A    between atoms: C7_7  and  C4_4 
ROOT
ATOM      1  C1  LG1 d5015      44.233   9.388  58.794  0.00  0.00    -0.004 C 
ATOM      2  C2  LG1 d5015      44.901   8.383  59.739  0.00  0.00    -0.001 C 
ATOM      3  C3  LG1 d5015      44.087   7.044  59.885  0.00  0.00    -0.030 C 
ATOM      4  C4  LG1 d5015      45.079   6.268  60.814  0.00  0.00     0.063 C 
ATOM      5  C5  LG1 d5015      46.508   6.635  60.279  0.00  0.00     0.013 C 
ATOM      6  C6  LG1 d5015      46.337   7.921  59.392  0.00  0.00     0.006 C 
ATOM      7  C9  LG1 d5015      43.915   6.268  58.532  0.00  0.00     0.016 C 
ATOM      8  C10 LG1 d5015      42.736   7.438  60.522  0.00  0.00     0.011 C 
ATOM      9  C11 LG1 d5015      41.983   8.476  59.644  0.00  0.00     0.007 C 
ATOM     10  C12 LG1 d5015      42.831   9.749  59.385  0.00  0.00     0.002 C 
ATOM     11  C13 LG1 d5015      42.048  10.795  58.509  0.00  0.00    -0.016 C 
ATOM     12  C14 LG1 d5015      42.979  12.053  58.273  0.00  0.00    -0.068 C 
ATOM     13  C15 LG1 d5015      42.579  13.302  58.428  0.00  0.00     0.053 C 
ATOM     14  C16 LG1 d5015      41.190  13.628  58.713  0.00  0.00     0.149 C 
ATOM     15  C17 LG1 d5015      40.136  12.525  58.744  0.00  0.00     0.084 C 
ATOM     16  C18 LG1 d5015      40.771  11.219  59.284  0.00  0.00     0.022 C 
ATOM     17  O2  LG1 d5015      40.838  14.812  58.862  0.00  0.00    -0.293 OA
ATOM     18  C19 LG1 d5015      44.429  11.795  57.876  0.00  0.00     0.035 C 
ATOM     19  C20 LG1 d5015      45.080  10.685  58.724  0.00  0.00     0.010 C 
ATOM     20  C21 LG1 d5015      41.685  10.237  57.079  0.00  0.00     0.020 C 
ENDROOT
BRANCH   4  21
ATOM     21  C7  LG1 d5015      44.799   4.762  60.946  0.00  0.00     0.128 C 
ATOM     22  O1  LG1 d5015      43.809   4.375  61.529  0.00  0.00    -0.298 OA
ATOM     23  C8  LG1 d5015      45.748   3.784  60.344  0.00  0.00     0.091 C 
ENDBRANCH   4  21
TORSDOF 1
ENDMDL
