MODEL 1
REMARK VINA RESULT:    -6.189      0.000      0.000
REMARK INTER + INTRA:          -6.754
REMARK INTER:                  -6.551
REMARK INTRA:                  -0.202
REMARK UNBOUND:                -0.202
REMARK  1 active torsions:
REMARK  status: ('A' for Active; 'I' for Inactive)
REMARK    1  A    between atoms: C7_7  and  C4_4 
ROOT
ATOM      1  C1  LG1 d5015      42.567   8.560  58.819  0.00  0.00    -0.004 C 
ATOM      2  C2  LG1 d5015      41.886   9.914  59.042  0.00  0.00    -0.001 C 
ATOM      3  C3  LG1 d5015      42.805  11.134  58.660  0.00  0.00    -0.030 C 
ATOM      4  C4  LG1 d5015      41.783  12.289  58.927  0.00  0.00     0.063 C 
ATOM      5  C5  LG1 d5015      40.407  11.741  58.408  0.00  0.00     0.013 C 
ATOM      6  C6  LG1 d5015      40.562  10.182  58.288  0.00  0.00     0.006 C 
ATOM      7  C9  LG1 d5015      43.229  11.144  57.149  0.00  0.00     0.016 C 
ATOM      8  C10 LG1 d5015      44.015  11.070  59.618  0.00  0.00     0.011 C 
ATOM      9  C11 LG1 d5015      44.767   9.717  59.481  0.00  0.00     0.007 C 
ATOM     10  C12 LG1 d5015      43.837   8.501  59.730  0.00  0.00     0.002 C 
ATOM     11  C13 LG1 d5015      44.619   7.141  59.604  0.00  0.00    -0.016 C 
ATOM     12  C14 LG1 d5015      43.605   5.952  59.851  0.00  0.00    -0.068 C 
ATOM     13  C15 LG1 d5015      43.854   4.929  60.649  0.00  0.00     0.053 C 
ATOM     14  C16 LG1 d5015      45.154   4.751  61.278  0.00  0.00     0.149 C 
ATOM     15  C17 LG1 d5015      46.300   5.703  60.948  0.00  0.00     0.084 C 
ATOM     16  C18 LG1 d5015      45.734   7.120  60.683  0.00  0.00     0.022 C 
ATOM     17  O2  LG1 d5015      45.362   3.784  62.031  0.00  0.00    -0.293 OA
ATOM     18  C19 LG1 d5015      42.253   6.017  59.149  0.00  0.00     0.035 C 
ATOM     19  C20 LG1 d5015      41.612   7.415  59.242  0.00  0.00     0.010 C 
ATOM     20  C21 LG1 d5015      45.219   6.919  58.163  0.00  0.00     0.020 C 
ENDROOT
BRANCH   4  21
ATOM     21  C7  LG1 d5015      42.193  13.659  58.364  0.00  0.00     0.128 C 
ATOM     22  O1  LG1 d5015      43.181  14.221  58.785  0.00  0.00    -0.298 OA
ATOM     23  C8  LG1 d5015      41.373  14.287  57.291  0.00  0.00     0.091 C 
ENDBRANCH   4  21
TORSDOF 1
ENDMDL
MODEL 2
REMARK VINA RESULT:    -5.988      1.283      7.205
REMARK INTER + INTRA:          -6.541
REMARK INTER:                  -6.340
REMARK INTRA:                  -0.201
REMARK UNBOUND:                -0.202
REMARK  1 active torsions:
REMARK  status: ('A' for Active; 'I' for Inactive)
REMARK    1  A    between atoms: C7_7  and  C4_4 
ROOT
ATOM      1  C1  LG1 d5015      44.227   9.388  58.798  0.00  0.00    -0.004 C 
ATOM      2  C2  LG1 d5015      44.893   8.384  59.746  0.00  0.00    -0.001 C 
ATOM      3  C3  LG1 d5015      44.069   7.054  59.910  0.00  0.00    -0.030 C 
ATOM      4  C4  LG1 d5015      45.062   6.277  60.837  0.00  0.00     0.063 C 
ATOM      5  C5  LG1 d5015      46.489   6.626  60.287  0.00  0.00     0.013 C 
ATOM      6  C6  LG1 d5015      46.323   7.907  59.391  0.00  0.00     0.006 C 
ATOM      7  C9  LG1 d5015      43.878   6.268  58.565  0.00  0.00     0.016 C 
ATOM      8  C10 LG1 d5015      42.726   7.465  60.555  0.00  0.00     0.011 C 
ATOM      9  C11 LG1 d5015      41.976   8.503  59.675  0.00  0.00     0.007 C 
ATOM     10  C12 LG1 d5015      42.832   9.766  59.399  0.00  0.00     0.002 C 
ATOM     11  C13 LG1 d5015      42.051  10.812  58.520  0.00  0.00    -0.016 C 
ATOM     12  C14 LG1 d5015      42.991  12.059  58.266  0.00  0.00    -0.068 C 
ATOM     13  C15 LG1 d5015      42.603  13.313  58.414  0.00  0.00     0.053 C 
ATOM     14  C16 LG1 d5015      41.220  13.653  58.709  0.00  0.00     0.149 C 
ATOM     15  C17 LG1 d5015      40.157  12.560  58.757  0.00  0.00     0.084 C 
ATOM     16  C18 LG1 d5015      40.785  11.253  59.302  0.00  0.00     0.022 C 
ATOM     17  O2  LG1 d5015      40.880  14.841  58.851  0.00  0.00    -0.293 OA
ATOM     18  C19 LG1 d5015      44.435  11.785  57.859  0.00  0.00     0.035 C 
ATOM     19  C20 LG1 d5015      45.083  10.676  58.710  0.00  0.00     0.010 C 
ATOM     20  C21 LG1 d5015      41.671  10.245  57.098  0.00  0.00     0.020 C 
ENDROOT
BRANCH   4  21
ATOM     21  C7  LG1 d5015      44.770   4.774  60.984  0.00  0.00     0.128 C 
ATOM     22  O1  LG1 d5015      43.791   4.399  61.593  0.00  0.00    -0.298 OA
ATOM     23  C8  LG1 d5015      45.693   3.784  60.364  0.00  0.00     0.091 C 
ENDBRANCH   4  21
TORSDOF 1
ENDMDL
MODEL 3
REMARK VINA RESULT:    -5.915      1.674      2.361
REMARK INTER + INTRA:          -6.463
REMARK INTER:                  -6.357
REMARK INTRA:                  -0.106
REMARK UNBOUND:                -0.202
REMARK  1 active torsions:
REMARK  status: ('A' for Active; 'I' for Inactive)
REMARK    1  A    between atoms: C7_7  and  C4_4 
ROOT
ATOM      1  C1  LG1 d5015      42.834  10.380  58.306  0.00  0.00    -0.004 C 
ATOM      2  C2  LG1 d5015      42.715  11.870  58.644  0.00  0.00    -0.001 C 
ATOM      3  C3  LG1 d5015      44.099  12.619  58.613  0.00  0.00    -0.030 C 
ATOM      4  C4  LG1 d5015      43.587  14.068  58.909  0.00  0.00     0.063 C 
ATOM      5  C5  LG1 d5015      42.247  14.198  58.103  0.00  0.00     0.013 C 
ATOM      6  C6  LG1 d5015      41.793  12.735  57.751  0.00  0.00     0.006 C 
ATOM      7  C9  LG1 d5015      44.796  12.582  57.208  0.00  0.00     0.016 C 
ATOM      8  C10 LG1 d5015      44.958  11.968  59.721  0.00  0.00     0.011 C 
ATOM      9  C11 LG1 d5015      45.123  10.442  59.478  0.00  0.00     0.007 C 
ATOM     10  C12 LG1 d5015      43.758   9.713  59.378  0.00  0.00     0.002 C 
ATOM     11  C13 LG1 d5015      43.944   8.167  59.149  0.00  0.00    -0.016 C 
ATOM     12  C14 LG1 d5015      42.514   7.498  59.038  0.00  0.00    -0.068 C 
ATOM     13  C15 LG1 d5015      42.167   6.400  59.684  0.00  0.00     0.053 C 
ATOM     14  C16 LG1 d5015      43.129   5.638  60.466  0.00  0.00     0.149 C 
ATOM     15  C17 LG1 d5015      44.599   6.044  60.476  0.00  0.00     0.084 C 
ATOM     16  C18 LG1 d5015      44.710   7.585  60.367  0.00  0.00     0.022 C 
ATOM     17  O2  LG1 d5015      42.776   4.610  61.071  0.00  0.00    -0.293 OA
ATOM     18  C19 LG1 d5015      41.477   8.187  58.158  0.00  0.00     0.035 C 
ATOM     19  C20 LG1 d5015      41.438   9.711  58.383  0.00  0.00     0.010 C 
ATOM     20  C21 LG1 d5015      44.692   7.841  57.799  0.00  0.00     0.020 C 
ENDROOT
BRANCH   4  21
ATOM     21  C7  LG1 d5015      44.614  15.183  58.650  0.00  0.00     0.128 C 
ATOM     22  O1  LG1 d5015      44.631  15.761  57.585  0.00  0.00    -0.298 OA
ATOM     23  C8  LG1 d5015      45.582  15.551  59.720  0.00  0.00     0.091 C 
ENDBRANCH   4  21
TORSDOF 1
ENDMDL
MODEL 4
REMARK VINA RESULT:    -5.866      3.152      5.216
REMARK INTER + INTRA:          -6.411
REMARK INTER:                  -6.222
REMARK INTRA:                  -0.189
REMARK UNBOUND:                -0.202
REMARK  1 active torsions:
REMARK  status: ('A' for Active; 'I' for Inactive)
REMARK    1  A    between atoms: C7_7  and  C4_4 
ROOT
ATOM      1  C1  LG1 d5015      44.343  12.358  59.860  0.00  0.00    -0.004 C 
ATOM      2  C2  LG1 d5015      45.520  13.247  59.443  0.00  0.00    -0.001 C 
ATOM      3  C3  LG1 d5015      45.091  14.429  58.496  0.00  0.00    -0.030 C 
ATOM      4  C4  LG1 d5015      46.480  15.136  58.361  0.00  0.00     0.063 C 
ATOM      5  C5  LG1 d5015      47.122  15.048  59.790  0.00  0.00     0.013 C 
ATOM      6  C6  LG1 d5015      46.331  13.934  60.568  0.00  0.00     0.006 C 
ATOM      7  C9  LG1 d5015      44.060  15.412  59.155  0.00  0.00     0.016 C 
ATOM      8  C10 LG1 d5015      44.544  13.766  57.212  0.00  0.00     0.011 C 
ATOM      9  C11 LG1 d5015      43.352  12.822  57.532  0.00  0.00     0.007 C 
ATOM     10  C12 LG1 d5015      43.730  11.729  58.566  0.00  0.00     0.002 C 
ATOM     11  C13 LG1 d5015      42.516  10.773  58.865  0.00  0.00    -0.016 C 
ATOM     12  C14 LG1 d5015      42.971   9.701  59.937  0.00  0.00    -0.068 C 
ATOM     13  C15 LG1 d5015      42.740   8.406  59.823  0.00  0.00     0.053 C 
ATOM     14  C16 LG1 d5015      41.926   7.869  58.744  0.00  0.00     0.149 C 
ATOM     15  C17 LG1 d5015      41.234   8.813  57.765  0.00  0.00     0.084 C 
ATOM     16  C18 LG1 d5015      42.118  10.065  57.543  0.00  0.00     0.022 C 
ATOM     17  O2  LG1 d5015      41.727   6.644  58.654  0.00  0.00    -0.293 OA
ATOM     18  C19 LG1 d5015      43.749  10.200  61.151  0.00  0.00     0.035 C 
ATOM     19  C20 LG1 d5015      44.850  11.207  60.767  0.00  0.00     0.010 C 
ATOM     20  C21 LG1 d5015      41.287  11.535  59.494  0.00  0.00     0.020 C 
ENDROOT
BRANCH   4  21
ATOM     21  C7  LG1 d5015      46.431  16.548  57.754  0.00  0.00     0.128 C 
ATOM     22  O1  LG1 d5015      46.006  16.715  56.631  0.00  0.00    -0.298 OA
ATOM     23  C8  LG1 d5015      46.903  17.709  58.559  0.00  0.00     0.091 C 
ENDBRANCH   4  21
TORSDOF 1
ENDMDL
MODEL 5
REMARK VINA RESULT:    -5.837      2.674      3.906
REMARK INTER + INTRA:          -6.381
REMARK INTER:                  -6.178
REMARK INTRA:                  -0.202
REMARK UNBOUND:                -0.202
REMARK  1 active torsions:
REMARK  status: ('A' for Active; 'I' for Inactive)
REMARK    1  A    between atoms: C7_7  and  C4_4 
ROOT
ATOM      1  C1  LG1 d5015      43.750  11.528  58.361  0.00  0.00    -0.004 C 
ATOM      2  C2  LG1 d5015      43.853  12.974  58.856  0.00  0.00    -0.001 C 
ATOM      3  C3  LG1 d5015      45.238  13.295  59.533  0.00  0.00    -0.030 C 
ATOM      4  C4  LG1 d5015      45.012  14.817  59.818  0.00  0.00     0.063 C 
ATOM      5  C5  LG1 d5015      44.252  15.358  58.556  0.00  0.00     0.013 C 
ATOM      6  C6  LG1 d5015      43.669  14.103  57.812  0.00  0.00     0.006 C 
ATOM      7  C9  LG1 d5015      46.460  13.114  58.566  0.00  0.00     0.016 C 
ATOM      8  C10 LG1 d5015      45.322  12.381  60.776  0.00  0.00     0.011 C 
ATOM      9  C11 LG1 d5015      45.207  10.883  60.380  0.00  0.00     0.007 C 
ATOM     10  C12 LG1 d5015      43.903  10.582  59.597  0.00  0.00     0.002 C 
ATOM     11  C13 LG1 d5015      43.795   9.058  59.219  0.00  0.00    -0.016 C 
ATOM     12  C14 LG1 d5015      42.454   8.833  58.410  0.00  0.00    -0.068 C 
ATOM     13  C15 LG1 d5015      41.601   7.856  58.661  0.00  0.00     0.053 C 
ATOM     14  C16 LG1 d5015      41.894   6.820  59.639  0.00  0.00     0.149 C 
ATOM     15  C17 LG1 d5015      43.252   6.786  60.333  0.00  0.00     0.084 C 
ATOM     16  C18 LG1 d5015      43.766   8.233  60.533  0.00  0.00     0.022 C 
ATOM     17  O2  LG1 d5015      41.072   5.914  59.863  0.00  0.00    -0.293 OA
ATOM     18  C19 LG1 d5015      42.122   9.825  57.300  0.00  0.00     0.035 C 
ATOM     19  C20 LG1 d5015      42.353  11.286  57.733  0.00  0.00     0.010 C 
ATOM     20  C21 LG1 d5015      44.967   8.584  58.276  0.00  0.00     0.020 C 
ENDROOT
BRANCH   4  21
ATOM     21  C7  LG1 d5015      46.280  15.598  60.200  0.00  0.00     0.128 C 
ATOM     22  O1  LG1 d5015      46.866  15.343  61.230  0.00  0.00    -0.298 OA
ATOM     23  C8  LG1 d5015      46.786  16.665  59.292  0.00  0.00     0.091 C 
ENDBRANCH   4  21
TORSDOF 1
ENDMDL
