REMARK INTER + INTRA:          -6.463
REMARK INTER:                  -6.357
REMARK INTRA:                  -0.106
REMARK UNBOUND:                -0.202
REMARK  1 active torsions:
REMARK  status: ('A' for Active; 'I' for Inactive)
REMARK    1  A    between atoms: C7_7  and  C4_4 
ROOT
ATOM      1  C1  LG1 d5015      42.834  10.380  58.306  0.00  0.00    -0.004 C 
ATOM      2  C2  LG1 d5015      42.715  11.870  58.644  0.00  0.00    -0.001 C 
ATOM      3  C3  LG1 d5015      44.099  12.619  58.613  0.00  0.00    -0.030 C 
ATOM      4  C4  LG1 d5015      43.587  14.068  58.909  0.00  0.00     0.063 C 
ATOM      5  C5  LG1 d5015      42.247  14.198  58.103  0.00  0.00     0.013 C 
ATOM      6  C6  LG1 d5015      41.793  12.735  57.751  0.00  0.00     0.006 C 
ATOM      7  C9  LG1 d5015      44.796  12.582  57.208  0.00  0.00     0.016 C 
ATOM      8  C10 LG1 d5015      44.958  11.968  59.721  0.00  0.00     0.011 C 
ATOM      9  C11 LG1 d5015      45.123  10.442  59.478  0.00  0.00     0.007 C 
ATOM     10  C12 LG1 d5015      43.758   9.713  59.378  0.00  0.00     0.002 C 
ATOM     11  C13 LG1 d5015      43.944   8.167  59.149  0.00  0.00    -0.016 C 
ATOM     12  C14 LG1 d5015      42.514   7.498  59.038  0.00  0.00    -0.068 C 
ATOM     13  C15 LG1 d5015      42.167   6.400  59.684  0.00  0.00     0.053 C 
ATOM     14  C16 LG1 d5015      43.129   5.638  60.466  0.00  0.00     0.149 C 
ATOM     15  C17 LG1 d5015      44.599   6.044  60.476  0.00  0.00     0.084 C 
ATOM     16  C18 LG1 d5015      44.710   7.585  60.367  0.00  0.00     0.022 C 
ATOM     17  O2  LG1 d5015      42.776   4.610  61.071  0.00  0.00    -0.293 OA
ATOM     18  C19 LG1 d5015      41.477   8.187  58.158  0.00  0.00     0.035 C 
ATOM     19  C20 LG1 d5015      41.438   9.711  58.383  0.00  0.00     0.010 C 
ATOM     20  C21 LG1 d5015      44.692   7.841  57.799  0.00  0.00     0.020 C 
ENDROOT
BRANCH   4  21
ATOM     21  C7  LG1 d5015      44.614  15.183  58.650  0.00  0.00     0.128 C 
ATOM     22  O1  LG1 d5015      44.631  15.761  57.585  0.00  0.00    -0.298 OA
ATOM     23  C8  LG1 d5015      45.582  15.551  59.720  0.00  0.00     0.091 C 
ENDBRANCH   4  21
TORSDOF 1
ENDMDL
