REMARK INTER + INTRA:          -6.460
REMARK INTER:                  -6.323
REMARK INTRA:                  -0.137
REMARK UNBOUND:                -0.132
REMARK  1 active torsions:
REMARK  status: ('A' for Active; 'I' for Inactive)
REMARK    1  A    between atoms: C7_7  and  C4_4 
ROOT
ATOM      1  C1  LG1 d5015      42.884  10.343  58.475  0.00  0.00    -0.004 C 
ATOM      2  C2  LG1 d5015      42.786  11.834  58.817  0.00  0.00    -0.001 C 
ATOM      3  C3  LG1 d5015      44.171  12.577  58.724  0.00  0.00    -0.030 C 
ATOM      4  C4  LG1 d5015      43.678  14.029  59.041  0.00  0.00     0.063 C 
ATOM      5  C5  LG1 d5015      42.304  14.163  58.294  0.00  0.00     0.013 C 
ATOM      6  C6  LG1 d5015      41.829  12.702  57.964  0.00  0.00     0.006 C 
ATOM      7  C9  LG1 d5015      44.805  12.536  57.289  0.00  0.00     0.016 C 
ATOM      8  C10 LG1 d5015      45.074  11.924  59.793  0.00  0.00     0.011 C 
ATOM      9  C11 LG1 d5015      45.223  10.397  59.546  0.00  0.00     0.007 C 
ATOM     10  C12 LG1 d5015      43.851   9.673  59.506  0.00  0.00     0.002 C 
ATOM     11  C13 LG1 d5015      44.022   8.127  59.271  0.00  0.00    -0.016 C 
ATOM     12  C14 LG1 d5015      42.586   7.463  59.224  0.00  0.00    -0.068 C 
ATOM     13  C15 LG1 d5015      42.262   6.367  59.886  0.00  0.00     0.053 C 
ATOM     14  C16 LG1 d5015      43.255   5.602  60.625  0.00  0.00     0.149 C 
ATOM     15  C17 LG1 d5015      44.726   6.002  60.571  0.00  0.00     0.084 C 
ATOM     16  C18 LG1 d5015      44.837   7.543  60.455  0.00  0.00     0.022 C 
ATOM     17  O2  LG1 d5015      42.924   4.576  61.247  0.00  0.00    -0.293 OA
ATOM     18  C19 LG1 d5015      41.513   8.155  58.390  0.00  0.00     0.035 C 
ATOM     19  C20 LG1 d5015      41.490   9.680  58.614  0.00  0.00     0.010 C 
ATOM     20  C21 LG1 d5015      44.708   7.796  57.890  0.00  0.00     0.020 C 
ENDROOT
BRANCH   4  21
ATOM     21  C7  LG1 d5015      44.697  15.139  58.735  0.00  0.00     0.128 C 
ATOM     22  O1  LG1 d5015      44.621  15.769  57.702  0.00  0.00    -0.298 OA
ATOM     23  C8  LG1 d5015      45.772  15.440  59.721  0.00  0.00     0.091 C 
ENDBRANCH   4  21
TORSDOF 1
ENDMDL
