MODEL 1
REMARK VINA RESULT:    -6.245      0.000      0.000
REMARK INTER + INTRA:          -6.749
REMARK INTER:                  -6.547
REMARK INTRA:                  -0.202
REMARK UNBOUND:                -0.139
REMARK  1 active torsions:
REMARK  status: ('A' for Active; 'I' for Inactive)
REMARK    1  A    between atoms: C7_7  and  C4_4 
ROOT
ATOM      1  C1  LG1 d5015      42.562   8.556  58.809  0.00  0.00    -0.004 C 
ATOM      2  C2  LG1 d5015      41.878   9.910  59.029  0.00  0.00    -0.001 C 
ATOM      3  C3  LG1 d5015      42.795  11.130  58.646  0.00  0.00    -0.030 C 
ATOM      4  C4  LG1 d5015      41.771  12.284  58.910  0.00  0.00     0.063 C 
ATOM      5  C5  LG1 d5015      40.397  11.734  58.390  0.00  0.00     0.013 C 
ATOM      6  C6  LG1 d5015      40.554  10.174  58.272  0.00  0.00     0.006 C 
ATOM      7  C9  LG1 d5015      43.223  11.139  57.136  0.00  0.00     0.016 C 
ATOM      8  C10 LG1 d5015      44.004  11.069  59.606  0.00  0.00     0.011 C 
ATOM      9  C11 LG1 d5015      44.759   9.717  59.474  0.00  0.00     0.007 C 
ATOM     10  C12 LG1 d5015      43.830   8.501  59.723  0.00  0.00     0.002 C 
ATOM     11  C13 LG1 d5015      44.614   7.142  59.600  0.00  0.00    -0.016 C 
ATOM     12  C14 LG1 d5015      43.601   5.951  59.848  0.00  0.00    -0.068 C 
ATOM     13  C15 LG1 d5015      43.851   4.930  60.648  0.00  0.00     0.053 C 
ATOM     14  C16 LG1 d5015      45.150   4.756  61.279  0.00  0.00     0.149 C 
ATOM     15  C17 LG1 d5015      46.295   5.708  60.949  0.00  0.00     0.084 C 
ATOM     16  C18 LG1 d5015      45.728   7.124  60.681  0.00  0.00     0.022 C 
ATOM     17  O2  LG1 d5015      45.359   3.789  62.034  0.00  0.00    -0.293 OA
ATOM     18  C19 LG1 d5015      42.251   6.013  59.143  0.00  0.00     0.035 C 
ATOM     19  C20 LG1 d5015      41.607   7.410  59.232  0.00  0.00     0.010 C 
ATOM     20  C21 LG1 d5015      45.217   6.919  58.160  0.00  0.00     0.020 C 
ENDROOT
BRANCH   4  21
ATOM     21  C7  LG1 d5015      42.180  13.654  58.345  0.00  0.00     0.128 C 
ATOM     22  O1  LG1 d5015      43.167  14.218  58.768  0.00  0.00    -0.298 OA
ATOM     23  C8  LG1 d5015      41.360  14.280  57.270  0.00  0.00     0.091 C 
ENDBRANCH   4  21
TORSDOF 1
ENDMDL
MODEL 2
REMARK VINA RESULT:    -6.057      1.289      7.206
REMARK INTER + INTRA:          -6.550
REMARK INTER:                  -6.346
REMARK INTRA:                  -0.204
REMARK UNBOUND:                -0.139
REMARK  1 active torsions:
REMARK  status: ('A' for Active; 'I' for Inactive)
REMARK    1  A    between atoms: C7_7  and  C4_4 
ROOT
ATOM      1  C1  LG1 d5015      44.236   9.403  58.794  0.00  0.00    -0.004 C 
ATOM      2  C2  LG1 d5015      44.898   8.392  59.736  0.00  0.00    -0.001 C 
ATOM      3  C3  LG1 d5015      44.071   7.061  59.888  0.00  0.00    -0.030 C 
ATOM      4  C4  LG1 d5015      45.059   6.276  60.813  0.00  0.00     0.063 C 
ATOM      5  C5  LG1 d5015      46.489   6.627  60.270  0.00  0.00     0.013 C 
ATOM      6  C6  LG1 d5015      46.327   7.914  59.382  0.00  0.00     0.006 C 
ATOM      7  C9  LG1 d5015      43.883   6.286  58.537  0.00  0.00     0.016 C 
ATOM      8  C10 LG1 d5015      42.727   7.470  60.531  0.00  0.00     0.011 C 
ATOM      9  C11 LG1 d5015      41.980   8.515  59.657  0.00  0.00     0.007 C 
ATOM     10  C12 LG1 d5015      42.840   9.779  59.392  0.00  0.00     0.002 C 
ATOM     11  C13 LG1 d5015      42.063  10.833  58.519  0.00  0.00    -0.016 C 
ATOM     12  C14 LG1 d5015      43.007  12.080  58.277  0.00  0.00    -0.068 C 
ATOM     13  C15 LG1 d5015      42.620  13.333  58.434  0.00  0.00     0.053 C 
ATOM     14  C16 LG1 d5015      41.236  13.674  58.726  0.00  0.00     0.149 C 
ATOM     15  C17 LG1 d5015      40.171  12.582  58.763  0.00  0.00     0.084 C 
ATOM     16  C18 LG1 d5015      40.795  11.270  59.300  0.00  0.00     0.022 C 
ATOM     17  O2  LG1 d5015      40.898  14.862  58.876  0.00  0.00    -0.293 OA
ATOM     18  C19 LG1 d5015      44.451  11.807  57.873  0.00  0.00     0.035 C 
ATOM     19  C20 LG1 d5015      45.095  10.691  58.718  0.00  0.00     0.010 C 
ATOM     20  C21 LG1 d5015      41.688  10.278  57.092  0.00  0.00     0.020 C 
ENDROOT
BRANCH   4  21
ATOM     21  C7  LG1 d5015      44.764   4.773  60.947  0.00  0.00     0.128 C 
ATOM     22  O1  LG1 d5015      43.765   4.397  61.522  0.00  0.00    -0.298 OA
ATOM     23  C8  LG1 d5015      45.710   3.784  60.357  0.00  0.00     0.091 C 
ENDBRANCH   4  21
TORSDOF 1
ENDMDL
MODEL 3
REMARK VINA RESULT:    -6.002      1.581      2.169
REMARK INTER + INTRA:          -6.492
REMARK INTER:                  -6.397
REMARK INTRA:                  -0.095
REMARK UNBOUND:                -0.139
REMARK  1 active torsions:
REMARK  status: ('A' for Active; 'I' for Inactive)
REMARK    1  A    between atoms: C7_7  and  C4_4 
ROOT
ATOM      1  C1  LG1 d5015      42.830  10.201  58.366  0.00  0.00    -0.004 C 
ATOM      2  C2  LG1 d5015      42.655  11.694  58.665  0.00  0.00    -0.001 C 
ATOM      3  C3  LG1 d5015      44.010  12.494  58.607  0.00  0.00    -0.030 C 
ATOM      4  C4  LG1 d5015      43.444  13.930  58.867  0.00  0.00     0.063 C 
ATOM      5  C5  LG1 d5015      42.096  13.987  58.065  0.00  0.00     0.013 C 
ATOM      6  C6  LG1 d5015      41.697  12.499  57.754  0.00  0.00     0.006 C 
ATOM      7  C9  LG1 d5015      44.702  12.446  57.199  0.00  0.00     0.016 C 
ATOM      8  C10 LG1 d5015      44.897  11.907  59.727  0.00  0.00     0.011 C 
ATOM      9  C11 LG1 d5015      45.119  10.382  59.525  0.00  0.00     0.007 C 
ATOM     10  C12 LG1 d5015      43.783   9.599  59.451  0.00  0.00     0.002 C 
ATOM     11  C13 LG1 d5015      44.027   8.056  59.262  0.00  0.00    -0.016 C 
ATOM     12  C14 LG1 d5015      42.623   7.330  59.177  0.00  0.00    -0.068 C 
ATOM     13  C15 LG1 d5015      42.321   6.237  59.855  0.00  0.00     0.053 C 
ATOM     14  C16 LG1 d5015      43.315   5.534  60.651  0.00  0.00     0.149 C 
ATOM     15  C17 LG1 d5015      44.769   5.996  60.642  0.00  0.00     0.084 C 
ATOM     16  C18 LG1 d5015      44.820   7.536  60.491  0.00  0.00     0.022 C 
ATOM     17  O2  LG1 d5015      43.004   4.510  61.285  0.00  0.00    -0.293 OA
ATOM     18  C19 LG1 d5015      41.556   7.955  58.285  0.00  0.00     0.035 C 
ATOM     19  C20 LG1 d5015      41.460   9.482  58.469  0.00  0.00     0.010 C 
ATOM     20  C21 LG1 d5015      44.781   7.722  57.918  0.00  0.00     0.020 C 
ENDROOT
BRANCH   4  21
ATOM     21  C7  LG1 d5015      44.426  15.076  58.572  0.00  0.00     0.128 C 
ATOM     22  O1  LG1 d5015      44.431  15.610  57.484  0.00  0.00    -0.298 OA
ATOM     23  C8  LG1 d5015      45.366  15.529  59.636  0.00  0.00     0.091 C 
ENDBRANCH   4  21
TORSDOF 1
ENDMDL
MODEL 4
REMARK VINA RESULT:    -5.905      2.715      3.977
REMARK INTER + INTRA:          -6.389
REMARK INTER:                  -6.185
REMARK INTRA:                  -0.204
REMARK UNBOUND:                -0.139
REMARK  1 active torsions:
REMARK  status: ('A' for Active; 'I' for Inactive)
REMARK    1  A    between atoms: C7_7  and  C4_4 
ROOT
ATOM      1  C1  LG1 d5015      43.681  11.638  58.410  0.00  0.00    -0.004 C 
ATOM      2  C2  LG1 d5015      43.824  13.063  58.957  0.00  0.00    -0.001 C 
ATOM      3  C3  LG1 d5015      45.247  13.346  59.567  0.00  0.00    -0.030 C 
ATOM      4  C4  LG1 d5015      45.051  14.857  59.926  0.00  0.00     0.063 C 
ATOM      5  C5  LG1 d5015      44.227  15.454  58.731  0.00  0.00     0.013 C 
ATOM      6  C6  LG1 d5015      43.591  14.233  57.971  0.00  0.00     0.006 C 
ATOM      7  C9  LG1 d5015      46.412  13.197  58.527  0.00  0.00     0.016 C 
ATOM      8  C10 LG1 d5015      45.393  12.383  60.766  0.00  0.00     0.011 C 
ATOM      9  C11 LG1 d5015      45.242  10.902  60.318  0.00  0.00     0.007 C 
ATOM     10  C12 LG1 d5015      43.894  10.642  59.598  0.00  0.00     0.002 C 
ATOM     11  C13 LG1 d5015      43.752   9.135  59.165  0.00  0.00    -0.016 C 
ATOM     12  C14 LG1 d5015      42.366   8.952  58.424  0.00  0.00    -0.068 C 
ATOM     13  C15 LG1 d5015      41.520   7.971  58.683  0.00  0.00     0.053 C 
ATOM     14  C16 LG1 d5015      41.858   6.894  59.600  0.00  0.00     0.149 C 
ATOM     15  C17 LG1 d5015      43.253   6.823  60.215  0.00  0.00     0.084 C 
ATOM     16  C18 LG1 d5015      43.790   8.257  60.445  0.00  0.00     0.022 C 
ATOM     17  O2  LG1 d5015      41.041   5.985  59.833  0.00  0.00    -0.293 OA
ATOM     18  C19 LG1 d5015      41.981   9.990  57.376  0.00  0.00     0.035 C 
ATOM     19  C20 LG1 d5015      42.249  11.431  57.853  0.00  0.00     0.010 C 
ATOM     20  C21 LG1 d5015      44.865   8.692  58.140  0.00  0.00     0.020 C 
ENDROOT
BRANCH   4  21
ATOM     21  C7  LG1 d5015      46.345  15.614  60.268  0.00  0.00     0.128 C 
ATOM     22  O1  LG1 d5015      46.980  15.320  61.258  0.00  0.00    -0.298 OA
ATOM     23  C8  LG1 d5015      46.815  16.706  59.370  0.00  0.00     0.091 C 
ENDBRANCH   4  21
TORSDOF 1
ENDMDL
MODEL 5
REMARK VINA RESULT:    -5.474      1.414      6.951
REMARK INTER + INTRA:          -5.933
REMARK INTER:                  -5.794
REMARK INTRA:                  -0.139
REMARK UNBOUND:                -0.139
REMARK  1 active torsions:
REMARK  status: ('A' for Active; 'I' for Inactive)
REMARK    1  A    between atoms: C7_7  and  C4_4 
ROOT
ATOM      1  C1  LG1 d5015      42.711   8.748  58.170  0.00  0.00    -0.004 C 
ATOM      2  C2  LG1 d5015      43.491   7.438  58.321  0.00  0.00    -0.001 C 
ATOM      3  C3  LG1 d5015      43.773   7.060  59.823  0.00  0.00    -0.030 C 
ATOM      4  C4  LG1 d5015      44.478   5.683  59.588  0.00  0.00     0.063 C 
ATOM      5  C5  LG1 d5015      43.681   5.012  58.416  0.00  0.00     0.013 C 
ATOM      6  C6  LG1 d5015      42.864   6.158  57.716  0.00  0.00     0.006 C 
ATOM      7  C9  LG1 d5015      42.467   6.848  60.667  0.00  0.00     0.016 C 
ATOM      8  C10 LG1 d5015      44.667   8.189  60.382  0.00  0.00     0.011 C 
ATOM      9  C11 LG1 d5015      43.969   9.572  60.257  0.00  0.00     0.007 C 
ATOM     10  C12 LG1 d5015      43.570   9.897  58.794  0.00  0.00     0.002 C 
ATOM     11  C13 LG1 d5015      42.879  11.307  58.684  0.00  0.00    -0.016 C 
ATOM     12  C14 LG1 d5015      42.486  11.559  57.172  0.00  0.00    -0.068 C 
ATOM     13  C15 LG1 d5015      42.736  12.684  56.527  0.00  0.00     0.053 C 
ATOM     14  C16 LG1 d5015      43.291  13.845  57.205  0.00  0.00     0.149 C 
ATOM     15  C17 LG1 d5015      43.510  13.817  58.715  0.00  0.00     0.084 C 
ATOM     16  C18 LG1 d5015      43.895  12.383  59.154  0.00  0.00     0.022 C 
ATOM     17  O2  LG1 d5015      43.524  14.891  56.574  0.00  0.00    -0.293 OA
ATOM     18  C19 LG1 d5015      41.809  10.419  56.418  0.00  0.00     0.035 C 
ATOM     19  C20 LG1 d5015      42.497   9.063  56.667  0.00  0.00     0.010 C 
ATOM     20  C21 LG1 d5015      41.539  11.391  59.511  0.00  0.00     0.020 C 
ENDROOT
BRANCH   4  21
ATOM     21  C7  LG1 d5015      44.638   4.816  60.848  0.00  0.00     0.128 C 
ATOM     22  O1  LG1 d5015      44.012   3.784  60.961  0.00  0.00    -0.298 OA
ATOM     23  C8  LG1 d5015      45.574   5.249  61.924  0.00  0.00     0.091 C 
ENDBRANCH   4  21
TORSDOF 1
ENDMDL
