REMARK INTER + INTRA:          -6.754
REMARK INTER:                  -6.551
REMARK INTRA:                  -0.202
REMARK UNBOUND:                -0.202
REMARK  1 active torsions:
REMARK  status: ('A' for Active; 'I' for Inactive)
REMARK    1  A    between atoms: C7_7  and  C4_4 
ROOT
ATOM      1  C1  LG1 d5015      42.567   8.560  58.819  0.00  0.00    -0.004 C 
ATOM      2  C2  LG1 d5015      41.886   9.914  59.042  0.00  0.00    -0.001 C 
ATOM      3  C3  LG1 d5015      42.805  11.134  58.660  0.00  0.00    -0.030 C 
ATOM      4  C4  LG1 d5015      41.783  12.289  58.927  0.00  0.00     0.063 C 
ATOM      5  C5  LG1 d5015      40.407  11.741  58.408  0.00  0.00     0.013 C 
ATOM      6  C6  LG1 d5015      40.562  10.182  58.288  0.00  0.00     0.006 C 
ATOM      7  C9  LG1 d5015      43.229  11.144  57.149  0.00  0.00     0.016 C 
ATOM      8  C10 LG1 d5015      44.015  11.070  59.618  0.00  0.00     0.011 C 
ATOM      9  C11 LG1 d5015      44.767   9.717  59.481  0.00  0.00     0.007 C 
ATOM     10  C12 LG1 d5015      43.837   8.501  59.730  0.00  0.00     0.002 C 
ATOM     11  C13 LG1 d5015      44.619   7.141  59.604  0.00  0.00    -0.016 C 
ATOM     12  C14 LG1 d5015      43.605   5.952  59.851  0.00  0.00    -0.068 C 
ATOM     13  C15 LG1 d5015      43.854   4.929  60.649  0.00  0.00     0.053 C 
ATOM     14  C16 LG1 d5015      45.154   4.751  61.278  0.00  0.00     0.149 C 
ATOM     15  C17 LG1 d5015      46.300   5.703  60.948  0.00  0.00     0.084 C 
ATOM     16  C18 LG1 d5015      45.734   7.120  60.683  0.00  0.00     0.022 C 
ATOM     17  O2  LG1 d5015      45.362   3.784  62.031  0.00  0.00    -0.293 OA
ATOM     18  C19 LG1 d5015      42.253   6.017  59.149  0.00  0.00     0.035 C 
ATOM     19  C20 LG1 d5015      41.612   7.415  59.242  0.00  0.00     0.010 C 
ATOM     20  C21 LG1 d5015      45.219   6.919  58.163  0.00  0.00     0.020 C 
ENDROOT
BRANCH   4  21
ATOM     21  C7  LG1 d5015      42.193  13.659  58.364  0.00  0.00     0.128 C 
ATOM     22  O1  LG1 d5015      43.181  14.221  58.785  0.00  0.00    -0.298 OA
ATOM     23  C8  LG1 d5015      41.373  14.287  57.291  0.00  0.00     0.091 C 
ENDBRANCH   4  21
TORSDOF 1
ENDMDL
