REMARK INTER + INTRA:          -6.411
REMARK INTER:                  -6.222
REMARK INTRA:                  -0.189
REMARK UNBOUND:                -0.202
REMARK  1 active torsions:
REMARK  status: ('A' for Active; 'I' for Inactive)
REMARK    1  A    between atoms: C7_7  and  C4_4 
ROOT
ATOM      1  C1  LG1 d5015      44.343  12.358  59.860  0.00  0.00    -0.004 C 
ATOM      2  C2  LG1 d5015      45.520  13.247  59.443  0.00  0.00    -0.001 C 
ATOM      3  C3  LG1 d5015      45.091  14.429  58.496  0.00  0.00    -0.030 C 
ATOM      4  C4  LG1 d5015      46.480  15.136  58.361  0.00  0.00     0.063 C 
ATOM      5  C5  LG1 d5015      47.122  15.048  59.790  0.00  0.00     0.013 C 
ATOM      6  C6  LG1 d5015      46.331  13.934  60.568  0.00  0.00     0.006 C 
ATOM      7  C9  LG1 d5015      44.060  15.412  59.155  0.00  0.00     0.016 C 
ATOM      8  C10 LG1 d5015      44.544  13.766  57.212  0.00  0.00     0.011 C 
ATOM      9  C11 LG1 d5015      43.352  12.822  57.532  0.00  0.00     0.007 C 
ATOM     10  C12 LG1 d5015      43.730  11.729  58.566  0.00  0.00     0.002 C 
ATOM     11  C13 LG1 d5015      42.516  10.773  58.865  0.00  0.00    -0.016 C 
ATOM     12  C14 LG1 d5015      42.971   9.701  59.937  0.00  0.00    -0.068 C 
ATOM     13  C15 LG1 d5015      42.740   8.406  59.823  0.00  0.00     0.053 C 
ATOM     14  C16 LG1 d5015      41.926   7.869  58.744  0.00  0.00     0.149 C 
ATOM     15  C17 LG1 d5015      41.234   8.813  57.765  0.00  0.00     0.084 C 
ATOM     16  C18 LG1 d5015      42.118  10.065  57.543  0.00  0.00     0.022 C 
ATOM     17  O2  LG1 d5015      41.727   6.644  58.654  0.00  0.00    -0.293 OA
ATOM     18  C19 LG1 d5015      43.749  10.200  61.151  0.00  0.00     0.035 C 
ATOM     19  C20 LG1 d5015      44.850  11.207  60.767  0.00  0.00     0.010 C 
ATOM     20  C21 LG1 d5015      41.287  11.535  59.494  0.00  0.00     0.020 C 
ENDROOT
BRANCH   4  21
ATOM     21  C7  LG1 d5015      46.431  16.548  57.754  0.00  0.00     0.128 C 
ATOM     22  O1  LG1 d5015      46.006  16.715  56.631  0.00  0.00    -0.298 OA
ATOM     23  C8  LG1 d5015      46.903  17.709  58.559  0.00  0.00     0.091 C 
ENDBRANCH   4  21
TORSDOF 1
ENDMDL
