MODEL 1
REMARK VINA RESULT:    -6.174      0.000      0.000
REMARK INTER + INTRA:          -6.739
REMARK INTER:                  -6.539
REMARK INTRA:                  -0.200
REMARK UNBOUND:                -0.204
REMARK  1 active torsions:
REMARK  status: ('A' for Active; 'I' for Inactive)
REMARK    1  A    between atoms: C7_7  and  C4_4 
ROOT
ATOM      1  C1  LG1 d5015      42.559   8.553  58.795  0.00  0.00    -0.004 C 
ATOM      2  C2  LG1 d5015      41.866   9.901  59.024  0.00  0.00    -0.001 C 
ATOM      3  C3  LG1 d5015      42.775  11.130  58.650  0.00  0.00    -0.030 C 
ATOM      4  C4  LG1 d5015      41.743  12.275  58.921  0.00  0.00     0.063 C 
ATOM      5  C5  LG1 d5015      40.373  11.719  58.396  0.00  0.00     0.013 C 
ATOM      6  C6  LG1 d5015      40.541  10.162  58.268  0.00  0.00     0.006 C 
ATOM      7  C9  LG1 d5015      43.203  11.152  57.140  0.00  0.00     0.016 C 
ATOM      8  C10 LG1 d5015      43.984  11.071  59.610  0.00  0.00     0.011 C 
ATOM      9  C11 LG1 d5015      44.748   9.725  59.468  0.00  0.00     0.007 C 
ATOM     10  C12 LG1 d5015      43.827   8.500  59.709  0.00  0.00     0.002 C 
ATOM     11  C13 LG1 d5015      44.620   7.148  59.577  0.00  0.00    -0.016 C 
ATOM     12  C14 LG1 d5015      43.615   5.949  59.816  0.00  0.00    -0.068 C 
ATOM     13  C15 LG1 d5015      43.871   4.924  60.609  0.00  0.00     0.053 C 
ATOM     14  C16 LG1 d5015      45.171   4.754  61.240  0.00  0.00     0.149 C 
ATOM     15  C17 LG1 d5015      46.310   5.716  60.917  0.00  0.00     0.084 C 
ATOM     16  C18 LG1 d5015      45.733   7.130  60.659  0.00  0.00     0.022 C 
ATOM     17  O2  LG1 d5015      45.386   3.784  61.988  0.00  0.00    -0.293 OA
ATOM     18  C19 LG1 d5015      42.264   6.006  59.111  0.00  0.00     0.035 C 
ATOM     19  C20 LG1 d5015      41.612   7.399  59.210  0.00  0.00     0.010 C 
ATOM     20  C21 LG1 d5015      45.226   6.938  58.136  0.00  0.00     0.020 C 
ENDROOT
BRANCH   4  21
ATOM     21  C7  LG1 d5015      42.144  13.652  58.366  0.00  0.00     0.128 C 
ATOM     22  O1  LG1 d5015      43.130  14.216  58.789  0.00  0.00    -0.298 OA
ATOM     23  C8  LG1 d5015      41.316  14.283  57.300  0.00  0.00     0.091 C 
ENDBRANCH   4  21
TORSDOF 1
ENDMDL
MODEL 2
REMARK VINA RESULT:    -5.993      1.282      7.206
REMARK INTER + INTRA:          -6.548
REMARK INTER:                  -6.345
REMARK INTRA:                  -0.203
REMARK UNBOUND:                -0.204
REMARK  1 active torsions:
REMARK  status: ('A' for Active; 'I' for Inactive)
REMARK    1  A    between atoms: C7_7  and  C4_4 
ROOT
ATOM      1  C1  LG1 d5015      44.233   9.388  58.794  0.00  0.00    -0.004 C 
ATOM      2  C2  LG1 d5015      44.901   8.383  59.739  0.00  0.00    -0.001 C 
ATOM      3  C3  LG1 d5015      44.087   7.044  59.885  0.00  0.00    -0.030 C 
ATOM      4  C4  LG1 d5015      45.079   6.268  60.814  0.00  0.00     0.063 C 
ATOM      5  C5  LG1 d5015      46.508   6.635  60.279  0.00  0.00     0.013 C 
ATOM      6  C6  LG1 d5015      46.337   7.921  59.392  0.00  0.00     0.006 C 
ATOM      7  C9  LG1 d5015      43.915   6.268  58.532  0.00  0.00     0.016 C 
ATOM      8  C10 LG1 d5015      42.736   7.438  60.522  0.00  0.00     0.011 C 
ATOM      9  C11 LG1 d5015      41.983   8.476  59.644  0.00  0.00     0.007 C 
ATOM     10  C12 LG1 d5015      42.831   9.749  59.385  0.00  0.00     0.002 C 
ATOM     11  C13 LG1 d5015      42.048  10.795  58.509  0.00  0.00    -0.016 C 
ATOM     12  C14 LG1 d5015      42.979  12.053  58.273  0.00  0.00    -0.068 C 
ATOM     13  C15 LG1 d5015      42.579  13.302  58.428  0.00  0.00     0.053 C 
ATOM     14  C16 LG1 d5015      41.190  13.628  58.713  0.00  0.00     0.149 C 
ATOM     15  C17 LG1 d5015      40.136  12.525  58.744  0.00  0.00     0.084 C 
ATOM     16  C18 LG1 d5015      40.771  11.219  59.284  0.00  0.00     0.022 C 
ATOM     17  O2  LG1 d5015      40.838  14.812  58.862  0.00  0.00    -0.293 OA
ATOM     18  C19 LG1 d5015      44.429  11.795  57.876  0.00  0.00     0.035 C 
ATOM     19  C20 LG1 d5015      45.080  10.685  58.724  0.00  0.00     0.010 C 
ATOM     20  C21 LG1 d5015      41.685  10.237  57.079  0.00  0.00     0.020 C 
ENDROOT
BRANCH   4  21
ATOM     21  C7  LG1 d5015      44.799   4.762  60.946  0.00  0.00     0.128 C 
ATOM     22  O1  LG1 d5015      43.809   4.375  61.529  0.00  0.00    -0.298 OA
ATOM     23  C8  LG1 d5015      45.748   3.784  60.344  0.00  0.00     0.091 C 
ENDBRANCH   4  21
TORSDOF 1
ENDMDL
MODEL 3
REMARK VINA RESULT:    -5.936      1.583      2.164
REMARK INTER + INTRA:          -6.488
REMARK INTER:                  -6.405
REMARK INTRA:                  -0.083
REMARK UNBOUND:                -0.204
REMARK  1 active torsions:
REMARK  status: ('A' for Active; 'I' for Inactive)
REMARK    1  A    between atoms: C7_7  and  C4_4 
ROOT
ATOM      1  C1  LG1 d5015      42.825  10.189  58.404  0.00  0.00    -0.004 C 
ATOM      2  C2  LG1 d5015      42.672  11.685  58.699  0.00  0.00    -0.001 C 
ATOM      3  C3  LG1 d5015      44.029  12.476  58.585  0.00  0.00    -0.030 C 
ATOM      4  C4  LG1 d5015      43.483  13.917  58.856  0.00  0.00     0.063 C 
ATOM      5  C5  LG1 d5015      42.107  13.978  58.105  0.00  0.00     0.013 C 
ATOM      6  C6  LG1 d5015      41.686  12.491  57.820  0.00  0.00     0.006 C 
ATOM      7  C9  LG1 d5015      44.667  12.413  57.153  0.00  0.00     0.016 C 
ATOM      8  C10 LG1 d5015      44.954  11.889  59.674  0.00  0.00     0.011 C 
ATOM      9  C11 LG1 d5015      45.158  10.361  59.474  0.00  0.00     0.007 C 
ATOM     10  C12 LG1 d5015      43.814   9.587  59.456  0.00  0.00     0.002 C 
ATOM     11  C13 LG1 d5015      44.041   8.042  59.269  0.00  0.00    -0.016 C 
ATOM     12  C14 LG1 d5015      42.630   7.325  59.241  0.00  0.00    -0.068 C 
ATOM     13  C15 LG1 d5015      42.346   6.239  59.937  0.00  0.00     0.053 C 
ATOM     14  C16 LG1 d5015      43.363   5.533  60.700  0.00  0.00     0.149 C 
ATOM     15  C17 LG1 d5015      44.819   5.985  60.634  0.00  0.00     0.084 C 
ATOM     16  C18 LG1 d5015      44.875   7.524  60.471  0.00  0.00     0.022 C 
ATOM     17  O2  LG1 d5015      43.070   4.516  61.353  0.00  0.00    -0.293 OA
ATOM     18  C19 LG1 d5015      41.534   7.952  58.386  0.00  0.00     0.035 C 
ATOM     19  C20 LG1 d5015      41.456   9.480  58.562  0.00  0.00     0.010 C 
ATOM     20  C21 LG1 d5015      44.741   7.694  57.899  0.00  0.00     0.020 C 
ENDROOT
BRANCH   4  21
ATOM     21  C7  LG1 d5015      44.462  15.054  58.517  0.00  0.00     0.128 C 
ATOM     22  O1  LG1 d5015      44.448  15.562  57.417  0.00  0.00    -0.298 OA
ATOM     23  C8  LG1 d5015      45.421  15.529  59.553  0.00  0.00     0.091 C 
ENDBRANCH   4  21
TORSDOF 1
ENDMDL
MODEL 4
REMARK VINA RESULT:    -5.892      2.699      4.003
REMARK INTER + INTRA:          -6.440
REMARK INTER:                  -6.296
REMARK INTRA:                  -0.145
REMARK UNBOUND:                -0.204
REMARK  1 active torsions:
REMARK  status: ('A' for Active; 'I' for Inactive)
REMARK    1  A    between atoms: C7_7  and  C4_4 
ROOT
ATOM      1  C1  LG1 d5015      43.781  11.557  58.432  0.00  0.00    -0.004 C 
ATOM      2  C2  LG1 d5015      43.886  12.998  58.945  0.00  0.00    -0.001 C 
ATOM      3  C3  LG1 d5015      45.266  13.304  59.636  0.00  0.00    -0.030 C 
ATOM      4  C4  LG1 d5015      45.044  14.824  59.937  0.00  0.00     0.063 C 
ATOM      5  C5  LG1 d5015      44.297  15.383  58.675  0.00  0.00     0.013 C 
ATOM      6  C6  LG1 d5015      43.714  14.138  57.912  0.00  0.00     0.006 C 
ATOM      7  C9  LG1 d5015      46.496  13.130  58.677  0.00  0.00     0.016 C 
ATOM      8  C10 LG1 d5015      45.337  12.376  60.869  0.00  0.00     0.011 C 
ATOM      9  C11 LG1 d5015      45.219  10.883  60.456  0.00  0.00     0.007 C 
ATOM     10  C12 LG1 d5015      43.920  10.596  59.659  0.00  0.00     0.002 C 
ATOM     11  C13 LG1 d5015      43.809   9.078  59.263  0.00  0.00    -0.016 C 
ATOM     12  C14 LG1 d5015      42.473   8.867  58.440  0.00  0.00    -0.068 C 
ATOM     13  C15 LG1 d5015      41.615   7.891  58.674  0.00  0.00     0.053 C 
ATOM     14  C16 LG1 d5015      41.896   6.843  59.642  0.00  0.00     0.149 C 
ATOM     15  C17 LG1 d5015      43.249   6.795  60.346  0.00  0.00     0.084 C 
ATOM     16  C18 LG1 d5015      43.767   8.238  60.567  0.00  0.00     0.022 C 
ATOM     17  O2  LG1 d5015      41.068   5.938  59.849  0.00  0.00    -0.293 OA
ATOM     18  C19 LG1 d5015      42.154   9.873  57.340  0.00  0.00     0.035 C 
ATOM     19  C20 LG1 d5015      42.388  11.328  57.791  0.00  0.00     0.010 C 
ATOM     20  C21 LG1 d5015      44.986   8.609  58.324  0.00  0.00     0.020 C 
ENDROOT
BRANCH   4  21
ATOM     21  C7  LG1 d5015      46.312  15.596  60.338  0.00  0.00     0.128 C 
ATOM     22  O1  LG1 d5015      46.873  16.308  59.533  0.00  0.00    -0.298 OA
ATOM     23  C8  LG1 d5015      46.841  15.469  61.725  0.00  0.00     0.091 C 
ENDBRANCH   4  21
TORSDOF 1
ENDMDL
MODEL 5
REMARK VINA RESULT:    -5.416      1.413      6.937
REMARK INTER + INTRA:          -5.937
REMARK INTER:                  -5.732
REMARK INTRA:                  -0.204
REMARK UNBOUND:                -0.204
REMARK  1 active torsions:
REMARK  status: ('A' for Active; 'I' for Inactive)
REMARK    1  A    between atoms: C7_7  and  C4_4 
ROOT
ATOM      1  C1  LG1 d5015      42.560   8.619  58.432  0.00  0.00    -0.004 C 
ATOM      2  C2  LG1 d5015      43.461   7.384  58.541  0.00  0.00    -0.001 C 
ATOM      3  C3  LG1 d5015      44.026   7.163  59.994  0.00  0.00    -0.030 C 
ATOM      4  C4  LG1 d5015      44.793   5.822  59.744  0.00  0.00     0.063 C 
ATOM      5  C5  LG1 d5015      43.865   4.995  58.786  0.00  0.00     0.013 C 
ATOM      6  C6  LG1 d5015      42.848   6.015  58.157  0.00  0.00     0.006 C 
ATOM      7  C9  LG1 d5015      42.906   6.938  61.070  0.00  0.00     0.016 C 
ATOM      8  C10 LG1 d5015      44.905   8.396  60.298  0.00  0.00     0.011 C 
ATOM      9  C11 LG1 d5015      44.084   9.711  60.193  0.00  0.00     0.007 C 
ATOM     10  C12 LG1 d5015      43.414   9.875  58.804  0.00  0.00     0.002 C 
ATOM     11  C13 LG1 d5015      42.600  11.219  58.711  0.00  0.00    -0.016 C 
ATOM     12  C14 LG1 d5015      41.934  11.306  57.278  0.00  0.00    -0.068 C 
ATOM     13  C15 LG1 d5015      41.975  12.383  56.515  0.00  0.00     0.053 C 
ATOM     14  C16 LG1 d5015      42.541  13.636  56.992  0.00  0.00     0.149 C 
ATOM     15  C17 LG1 d5015      43.016  13.759  58.437  0.00  0.00     0.084 C 
ATOM     16  C18 LG1 d5015      43.588  12.399  58.910  0.00  0.00     0.022 C 
ATOM     17  O2  LG1 d5015      42.574  14.635  56.252  0.00  0.00    -0.293 OA
ATOM     18  C19 LG1 d5015      41.236  10.060  56.745  0.00  0.00     0.035 C 
ATOM     19  C20 LG1 d5015      42.066   8.782  56.971  0.00  0.00     0.010 C 
ATOM     20  C21 LG1 d5015      41.419  11.285  59.754  0.00  0.00     0.020 C 
ENDROOT
BRANCH   4  21
ATOM     21  C7  LG1 d5015      45.238   5.084  61.018  0.00  0.00     0.128 C 
ATOM     22  O1  LG1 d5015      46.094   5.561  61.731  0.00  0.00    -0.298 OA
ATOM     23  C8  LG1 d5015      44.603   3.784  61.372  0.00  0.00     0.091 C 
ENDBRANCH   4  21
TORSDOF 1
ENDMDL
