REMARK INTER + INTRA:          -6.440
REMARK INTER:                  -6.296
REMARK INTRA:                  -0.145
REMARK UNBOUND:                -0.204
REMARK  1 active torsions:
REMARK  status: ('A' for Active; 'I' for Inactive)
REMARK    1  A    between atoms: C7_7  and  C4_4 
ROOT
ATOM      1  C1  LG1 d5015      43.781  11.557  58.432  0.00  0.00    -0.004 C 
ATOM      2  C2  LG1 d5015      43.886  12.998  58.945  0.00  0.00    -0.001 C 
ATOM      3  C3  LG1 d5015      45.266  13.304  59.636  0.00  0.00    -0.030 C 
ATOM      4  C4  LG1 d5015      45.044  14.824  59.937  0.00  0.00     0.063 C 
ATOM      5  C5  LG1 d5015      44.297  15.383  58.675  0.00  0.00     0.013 C 
ATOM      6  C6  LG1 d5015      43.714  14.138  57.912  0.00  0.00     0.006 C 
ATOM      7  C9  LG1 d5015      46.496  13.130  58.677  0.00  0.00     0.016 C 
ATOM      8  C10 LG1 d5015      45.337  12.376  60.869  0.00  0.00     0.011 C 
ATOM      9  C11 LG1 d5015      45.219  10.883  60.456  0.00  0.00     0.007 C 
ATOM     10  C12 LG1 d5015      43.920  10.596  59.659  0.00  0.00     0.002 C 
ATOM     11  C13 LG1 d5015      43.809   9.078  59.263  0.00  0.00    -0.016 C 
ATOM     12  C14 LG1 d5015      42.473   8.867  58.440  0.00  0.00    -0.068 C 
ATOM     13  C15 LG1 d5015      41.615   7.891  58.674  0.00  0.00     0.053 C 
ATOM     14  C16 LG1 d5015      41.896   6.843  59.642  0.00  0.00     0.149 C 
ATOM     15  C17 LG1 d5015      43.249   6.795  60.346  0.00  0.00     0.084 C 
ATOM     16  C18 LG1 d5015      43.767   8.238  60.567  0.00  0.00     0.022 C 
ATOM     17  O2  LG1 d5015      41.068   5.938  59.849  0.00  0.00    -0.293 OA
ATOM     18  C19 LG1 d5015      42.154   9.873  57.340  0.00  0.00     0.035 C 
ATOM     19  C20 LG1 d5015      42.388  11.328  57.791  0.00  0.00     0.010 C 
ATOM     20  C21 LG1 d5015      44.986   8.609  58.324  0.00  0.00     0.020 C 
ENDROOT
BRANCH   4  21
ATOM     21  C7  LG1 d5015      46.312  15.596  60.338  0.00  0.00     0.128 C 
ATOM     22  O1  LG1 d5015      46.873  16.308  59.533  0.00  0.00    -0.298 OA
ATOM     23  C8  LG1 d5015      46.841  15.469  61.725  0.00  0.00     0.091 C 
ENDBRANCH   4  21
TORSDOF 1
ENDMDL
