REMARK INTER + INTRA:          -6.488
REMARK INTER:                  -6.405
REMARK INTRA:                  -0.083
REMARK UNBOUND:                -0.204
REMARK  1 active torsions:
REMARK  status: ('A' for Active; 'I' for Inactive)
REMARK    1  A    between atoms: C7_7  and  C4_4 
ROOT
ATOM      1  C1  LG1 d5015      42.825  10.189  58.404  0.00  0.00    -0.004 C 
ATOM      2  C2  LG1 d5015      42.672  11.685  58.699  0.00  0.00    -0.001 C 
ATOM      3  C3  LG1 d5015      44.029  12.476  58.585  0.00  0.00    -0.030 C 
ATOM      4  C4  LG1 d5015      43.483  13.917  58.856  0.00  0.00     0.063 C 
ATOM      5  C5  LG1 d5015      42.107  13.978  58.105  0.00  0.00     0.013 C 
ATOM      6  C6  LG1 d5015      41.686  12.491  57.820  0.00  0.00     0.006 C 
ATOM      7  C9  LG1 d5015      44.667  12.413  57.153  0.00  0.00     0.016 C 
ATOM      8  C10 LG1 d5015      44.954  11.889  59.674  0.00  0.00     0.011 C 
ATOM      9  C11 LG1 d5015      45.158  10.361  59.474  0.00  0.00     0.007 C 
ATOM     10  C12 LG1 d5015      43.814   9.587  59.456  0.00  0.00     0.002 C 
ATOM     11  C13 LG1 d5015      44.041   8.042  59.269  0.00  0.00    -0.016 C 
ATOM     12  C14 LG1 d5015      42.630   7.325  59.241  0.00  0.00    -0.068 C 
ATOM     13  C15 LG1 d5015      42.346   6.239  59.937  0.00  0.00     0.053 C 
ATOM     14  C16 LG1 d5015      43.363   5.533  60.700  0.00  0.00     0.149 C 
ATOM     15  C17 LG1 d5015      44.819   5.985  60.634  0.00  0.00     0.084 C 
ATOM     16  C18 LG1 d5015      44.875   7.524  60.471  0.00  0.00     0.022 C 
ATOM     17  O2  LG1 d5015      43.070   4.516  61.353  0.00  0.00    -0.293 OA
ATOM     18  C19 LG1 d5015      41.534   7.952  58.386  0.00  0.00     0.035 C 
ATOM     19  C20 LG1 d5015      41.456   9.480  58.562  0.00  0.00     0.010 C 
ATOM     20  C21 LG1 d5015      44.741   7.694  57.899  0.00  0.00     0.020 C 
ENDROOT
BRANCH   4  21
ATOM     21  C7  LG1 d5015      44.462  15.054  58.517  0.00  0.00     0.128 C 
ATOM     22  O1  LG1 d5015      44.448  15.562  57.417  0.00  0.00    -0.298 OA
ATOM     23  C8  LG1 d5015      45.421  15.529  59.553  0.00  0.00     0.091 C 
ENDBRANCH   4  21
TORSDOF 1
ENDMDL
