REMARK INTER + INTRA:          -6.722
REMARK INTER:                  -6.572
REMARK INTRA:                  -0.150
REMARK UNBOUND:                -0.119
REMARK  1 active torsions:
REMARK  status: ('A' for Active; 'I' for Inactive)
REMARK    1  A    between atoms: C7_7  and  C4_4 
ROOT
ATOM      1  C1  LG1 d5015      42.589   8.274  58.825  0.00  0.00    -0.004 C 
ATOM      2  C2  LG1 d5015      41.899   9.640  58.900  0.00  0.00    -0.001 C 
ATOM      3  C3  LG1 d5015      42.839  10.827  58.469  0.00  0.00    -0.030 C 
ATOM      4  C4  LG1 d5015      41.806  11.997  58.585  0.00  0.00     0.063 C 
ATOM      5  C5  LG1 d5015      40.459  11.405  58.039  0.00  0.00     0.013 C 
ATOM      6  C6  LG1 d5015      40.618   9.842  58.056  0.00  0.00     0.006 C 
ATOM      7  C9  LG1 d5015      43.345  10.714  56.987  0.00  0.00     0.016 C 
ATOM      8  C10 LG1 d5015      43.996  10.845  59.493  0.00  0.00     0.011 C 
ATOM      9  C11 LG1 d5015      44.752   9.488  59.509  0.00  0.00     0.007 C 
ATOM     10  C12 LG1 d5015      43.808   8.294  59.806  0.00  0.00     0.002 C 
ATOM     11  C13 LG1 d5015      44.593   6.930  59.834  0.00  0.00    -0.016 C 
ATOM     12  C14 LG1 d5015      43.565   5.762  60.123  0.00  0.00    -0.068 C 
ATOM     13  C15 LG1 d5015      43.769   4.810  61.015  0.00  0.00     0.053 C 
ATOM     14  C16 LG1 d5015      45.033   4.688  61.725  0.00  0.00     0.149 C 
ATOM     15  C17 LG1 d5015      46.197   5.612  61.380  0.00  0.00     0.084 C 
ATOM     16  C18 LG1 d5015      45.649   7.001  60.970  0.00  0.00     0.022 C 
ATOM     17  O2  LG1 d5015      45.199   3.785  62.565  0.00  0.00    -0.293 OA
ATOM     18  C19 LG1 d5015      42.253   5.766  59.346  0.00  0.00     0.035 C 
ATOM     19  C20 LG1 d5015      41.610   7.165  59.289  0.00  0.00     0.010 C 
ATOM     20  C21 LG1 d5015      45.270   6.593  58.450  0.00  0.00     0.020 C 
ENDROOT
BRANCH   4  21
ATOM     21  C7  LG1 d5015      42.249  13.318  57.934  0.00  0.00     0.128 C 
ATOM     22  O1  LG1 d5015      41.724  13.699  56.909  0.00  0.00    -0.298 OA
ATOM     23  C8  LG1 d5015      43.320  14.130  58.577  0.00  0.00     0.091 C 
ENDBRANCH   4  21
TORSDOF 1
ENDMDL
