REMARK INTER + INTRA:          -6.749
REMARK INTER:                  -6.547
REMARK INTRA:                  -0.202
REMARK UNBOUND:                -0.139
REMARK  1 active torsions:
REMARK  status: ('A' for Active; 'I' for Inactive)
REMARK    1  A    between atoms: C7_7  and  C4_4 
ROOT
ATOM      1  C1  LG1 d5015      42.562   8.556  58.809  0.00  0.00    -0.004 C 
ATOM      2  C2  LG1 d5015      41.878   9.910  59.029  0.00  0.00    -0.001 C 
ATOM      3  C3  LG1 d5015      42.795  11.130  58.646  0.00  0.00    -0.030 C 
ATOM      4  C4  LG1 d5015      41.771  12.284  58.910  0.00  0.00     0.063 C 
ATOM      5  C5  LG1 d5015      40.397  11.734  58.390  0.00  0.00     0.013 C 
ATOM      6  C6  LG1 d5015      40.554  10.174  58.272  0.00  0.00     0.006 C 
ATOM      7  C9  LG1 d5015      43.223  11.139  57.136  0.00  0.00     0.016 C 
ATOM      8  C10 LG1 d5015      44.004  11.069  59.606  0.00  0.00     0.011 C 
ATOM      9  C11 LG1 d5015      44.759   9.717  59.474  0.00  0.00     0.007 C 
ATOM     10  C12 LG1 d5015      43.830   8.501  59.723  0.00  0.00     0.002 C 
ATOM     11  C13 LG1 d5015      44.614   7.142  59.600  0.00  0.00    -0.016 C 
ATOM     12  C14 LG1 d5015      43.601   5.951  59.848  0.00  0.00    -0.068 C 
ATOM     13  C15 LG1 d5015      43.851   4.930  60.648  0.00  0.00     0.053 C 
ATOM     14  C16 LG1 d5015      45.150   4.756  61.279  0.00  0.00     0.149 C 
ATOM     15  C17 LG1 d5015      46.295   5.708  60.949  0.00  0.00     0.084 C 
ATOM     16  C18 LG1 d5015      45.728   7.124  60.681  0.00  0.00     0.022 C 
ATOM     17  O2  LG1 d5015      45.359   3.789  62.034  0.00  0.00    -0.293 OA
ATOM     18  C19 LG1 d5015      42.251   6.013  59.143  0.00  0.00     0.035 C 
ATOM     19  C20 LG1 d5015      41.607   7.410  59.232  0.00  0.00     0.010 C 
ATOM     20  C21 LG1 d5015      45.217   6.919  58.160  0.00  0.00     0.020 C 
ENDROOT
BRANCH   4  21
ATOM     21  C7  LG1 d5015      42.180  13.654  58.345  0.00  0.00     0.128 C 
ATOM     22  O1  LG1 d5015      43.167  14.218  58.768  0.00  0.00    -0.298 OA
ATOM     23  C8  LG1 d5015      41.360  14.280  57.270  0.00  0.00     0.091 C 
ENDBRANCH   4  21
TORSDOF 1
ENDMDL
