REMARK INTER + INTRA:          -6.739
REMARK INTER:                  -6.539
REMARK INTRA:                  -0.200
REMARK UNBOUND:                -0.204
REMARK  1 active torsions:
REMARK  status: ('A' for Active; 'I' for Inactive)
REMARK    1  A    between atoms: C7_7  and  C4_4 
ROOT
ATOM      1  C1  LG1 d5015      42.559   8.553  58.795  0.00  0.00    -0.004 C 
ATOM      2  C2  LG1 d5015      41.866   9.901  59.024  0.00  0.00    -0.001 C 
ATOM      3  C3  LG1 d5015      42.775  11.130  58.650  0.00  0.00    -0.030 C 
ATOM      4  C4  LG1 d5015      41.743  12.275  58.921  0.00  0.00     0.063 C 
ATOM      5  C5  LG1 d5015      40.373  11.719  58.396  0.00  0.00     0.013 C 
ATOM      6  C6  LG1 d5015      40.541  10.162  58.268  0.00  0.00     0.006 C 
ATOM      7  C9  LG1 d5015      43.203  11.152  57.140  0.00  0.00     0.016 C 
ATOM      8  C10 LG1 d5015      43.984  11.071  59.610  0.00  0.00     0.011 C 
ATOM      9  C11 LG1 d5015      44.748   9.725  59.468  0.00  0.00     0.007 C 
ATOM     10  C12 LG1 d5015      43.827   8.500  59.709  0.00  0.00     0.002 C 
ATOM     11  C13 LG1 d5015      44.620   7.148  59.577  0.00  0.00    -0.016 C 
ATOM     12  C14 LG1 d5015      43.615   5.949  59.816  0.00  0.00    -0.068 C 
ATOM     13  C15 LG1 d5015      43.871   4.924  60.609  0.00  0.00     0.053 C 
ATOM     14  C16 LG1 d5015      45.171   4.754  61.240  0.00  0.00     0.149 C 
ATOM     15  C17 LG1 d5015      46.310   5.716  60.917  0.00  0.00     0.084 C 
ATOM     16  C18 LG1 d5015      45.733   7.130  60.659  0.00  0.00     0.022 C 
ATOM     17  O2  LG1 d5015      45.386   3.784  61.988  0.00  0.00    -0.293 OA
ATOM     18  C19 LG1 d5015      42.264   6.006  59.111  0.00  0.00     0.035 C 
ATOM     19  C20 LG1 d5015      41.612   7.399  59.210  0.00  0.00     0.010 C 
ATOM     20  C21 LG1 d5015      45.226   6.938  58.136  0.00  0.00     0.020 C 
ENDROOT
BRANCH   4  21
ATOM     21  C7  LG1 d5015      42.144  13.652  58.366  0.00  0.00     0.128 C 
ATOM     22  O1  LG1 d5015      43.130  14.216  58.789  0.00  0.00    -0.298 OA
ATOM     23  C8  LG1 d5015      41.316  14.283  57.300  0.00  0.00     0.091 C 
ENDBRANCH   4  21
TORSDOF 1
ENDMDL
