REMARK INTER + INTRA:          -6.710
REMARK INTER:                  -6.556
REMARK INTRA:                  -0.154
REMARK UNBOUND:                -0.165
REMARK  1 active torsions:
REMARK  status: ('A' for Active; 'I' for Inactive)
REMARK    1  A    between atoms: C10_13  and  C11_14 
ROOT
ATOM      1  C1  LG1 d5015      40.168  12.847  59.159  0.00  0.00     0.018 C 
ATOM      2  C2  LG1 d5015      41.114  13.415  58.167  0.00  0.00     0.193 C 
ATOM      3  C3  LG1 d5015      41.843  12.407  57.369  0.00  0.00     0.049 A 
ATOM      4  C4  LG1 d5015      42.843  12.808  56.480  0.00  0.00     0.037 A 
ATOM      5  C5  LG1 d5015      43.485  11.855  55.687  0.00  0.00     0.012 A 
ATOM      6  C6  LG1 d5015      43.123  10.510  55.772  0.00  0.00     0.022 A 
ATOM      7  C7  LG1 d5015      42.121  10.112  56.658  0.00  0.00     0.039 A 
ATOM      8  C8  LG1 d5015      41.492  11.056  57.469  0.00  0.00     0.083 A 
ATOM      9  O1  LG1 d5015      40.506  10.598  58.303  0.00  0.00    -0.346 OA
ATOM     10  C9  LG1 d5015      40.346  11.398  59.479  0.00  0.00     0.218 C 
ATOM     11 BR1  LG1 d5015      44.861  12.386  54.504  0.00  0.00    -0.051 Br
ATOM     12  O2  LG1 d5015      41.291  14.614  58.008  0.00  0.00    -0.287 OA
ATOM     13  C10 LG1 d5015      39.234  13.636  59.705  0.00  0.00     0.025 C 
ENDROOT
BRANCH  13  14
ATOM     14  C11 LG1 d5015      38.268  13.205  60.669  0.00  0.00    -0.029 A 
ATOM     15  C14 LG1 d5015      38.408  13.429  62.020  0.00  0.00     0.061 A 
ATOM     16  S1  LG1 d5015      37.093  12.799  62.916  0.00  0.00    -0.113 SA
ATOM     17  C13 LG1 d5015      36.330  12.222  61.496  0.00  0.00     0.050 A 
ATOM     18  C12 LG1 d5015      37.064  12.506  60.365  0.00  0.00     0.019 A 
ENDBRANCH  13  14
TORSDOF 1
ENDMDL
