REMARK INTER + INTRA:          -6.913
REMARK INTER:                  -7.032
REMARK INTRA:                   0.119
REMARK UNBOUND:                -0.165
REMARK  1 active torsions:
REMARK  status: ('A' for Active; 'I' for Inactive)
REMARK    1  A    between atoms: C10_13  and  C11_14 
ROOT
ATOM      1  C1  LG1 d5015      39.631  12.423  59.652  0.00  0.00     0.018 C 
ATOM      2  C2  LG1 d5015      40.627  11.620  58.899  0.00  0.00     0.193 C 
ATOM      3  C3  LG1 d5015      41.442  12.398  57.942  0.00  0.00     0.049 A 
ATOM      4  C4  LG1 d5015      42.336  11.745  57.092  0.00  0.00     0.037 A 
ATOM      5  C5  LG1 d5015      43.145  12.491  56.234  0.00  0.00     0.012 A 
ATOM      6  C6  LG1 d5015      43.070  13.884  56.231  0.00  0.00     0.022 A 
ATOM      7  C7  LG1 d5015      42.178  14.537  57.084  0.00  0.00     0.039 A 
ATOM      8  C8  LG1 d5015      41.351  13.795  57.928  0.00  0.00     0.083 A 
ATOM      9  O1  LG1 d5015      40.513  14.499  58.750  0.00  0.00    -0.346 OA
ATOM     10  C9  LG1 d5015      39.327  13.777  59.098  0.00  0.00     0.218 C 
ATOM     11 BR1  LG1 d5015      44.337  11.611  55.058  0.00  0.00    -0.051 Br
ATOM     12  O2  LG1 d5015      40.775  10.416  59.043  0.00  0.00    -0.287 OA
ATOM     13  C10 LG1 d5015      39.068  11.908  60.752  0.00  0.00     0.025 C 
ENDROOT
BRANCH  13  14
ATOM     14  C11 LG1 d5015      38.098  12.584  61.561  0.00  0.00    -0.029 A 
ATOM     15  C14 LG1 d5015      36.885  12.026  61.894  0.00  0.00     0.061 A 
ATOM     16  S1  LG1 d5015      35.945  13.072  62.871  0.00  0.00    -0.113 SA
ATOM     17  C13 LG1 d5015      37.161  14.276  62.849  0.00  0.00     0.050 A 
ATOM     18  C12 LG1 d5015      38.259  13.887  62.114  0.00  0.00     0.019 A 
ENDBRANCH  13  14
TORSDOF 1
ENDMDL
