MODEL 1
REMARK VINA RESULT:    -6.381      0.000      0.000
REMARK INTER + INTRA:          -6.922
REMARK INTER:                  -7.036
REMARK INTRA:                   0.114
REMARK UNBOUND:                -0.168
REMARK  1 active torsions:
REMARK  status: ('A' for Active; 'I' for Inactive)
REMARK    1  A    between atoms: C10_13  and  C11_14 
ROOT
ATOM      1  C1  LG1 d5015      39.613  12.403  59.682  0.00  0.00     0.018 C 
ATOM      2  C2  LG1 d5015      40.608  11.580  58.950  0.00  0.00     0.193 C 
ATOM      3  C3  LG1 d5015      41.424  12.332  57.973  0.00  0.00     0.049 A 
ATOM      4  C4  LG1 d5015      42.318  11.656  57.140  0.00  0.00     0.037 A 
ATOM      5  C5  LG1 d5015      43.128  12.379  56.263  0.00  0.00     0.012 A 
ATOM      6  C6  LG1 d5015      43.054  13.772  56.225  0.00  0.00     0.022 A 
ATOM      7  C7  LG1 d5015      42.164  14.447  57.061  0.00  0.00     0.039 A 
ATOM      8  C8  LG1 d5015      41.336  13.728  57.924  0.00  0.00     0.083 A 
ATOM      9  O1  LG1 d5015      40.498  14.454  58.728  0.00  0.00    -0.346 OA
ATOM     10  C9  LG1 d5015      39.311  13.743  59.094  0.00  0.00     0.218 C 
ATOM     11 BR1  LG1 d5015      44.318  11.468  55.110  0.00  0.00    -0.051 Br
ATOM     12  O2  LG1 d5015      40.755  10.379  59.124  0.00  0.00    -0.287 OA
ATOM     13  C10 LG1 d5015      39.050  11.916  60.795  0.00  0.00     0.025 C 
ENDROOT
BRANCH  13  14
ATOM     14  C11 LG1 d5015      38.081  12.613  61.586  0.00  0.00    -0.029 A 
ATOM     15  C14 LG1 d5015      36.864  12.069  61.929  0.00  0.00     0.061 A 
ATOM     16  S1  LG1 d5015      35.926  13.140  62.878  0.00  0.00    -0.113 SA
ATOM     17  C13 LG1 d5015      37.147  14.338  62.835  0.00  0.00     0.050 A 
ATOM     18  C12 LG1 d5015      38.246  13.928  62.113  0.00  0.00     0.019 A 
ENDBRANCH  13  14
TORSDOF 1
ENDMDL
MODEL 2
REMARK VINA RESULT:    -6.221      1.088      2.495
REMARK INTER + INTRA:          -6.752
REMARK INTER:                  -6.587
REMARK INTRA:                  -0.165
REMARK UNBOUND:                -0.168
REMARK  1 active torsions:
REMARK  status: ('A' for Active; 'I' for Inactive)
REMARK    1  A    between atoms: C10_13  and  C11_14 
ROOT
ATOM      1  C1  LG1 d5015      40.208  12.844  59.146  0.00  0.00     0.018 C 
ATOM      2  C2  LG1 d5015      41.167  13.474  58.204  0.00  0.00     0.193 C 
ATOM      3  C3  LG1 d5015      41.894  12.519  57.341  0.00  0.00     0.049 A 
ATOM      4  C4  LG1 d5015      42.904  12.973  56.491  0.00  0.00     0.037 A 
ATOM      5  C5  LG1 d5015      43.543  12.074  55.635  0.00  0.00     0.012 A 
ATOM      6  C6  LG1 d5015      43.169  10.730  55.620  0.00  0.00     0.022 A 
ATOM      7  C7  LG1 d5015      42.156  10.278  56.467  0.00  0.00     0.039 A 
ATOM      8  C8  LG1 d5015      41.529  11.168  57.340  0.00  0.00     0.083 A 
ATOM      9  O1  LG1 d5015      40.532  10.661  58.131  0.00  0.00    -0.346 OA
ATOM     10  C9  LG1 d5015      40.371  11.375  59.362  0.00  0.00     0.218 C 
ATOM     11 BR1  LG1 d5015      44.934  12.676  54.504  0.00  0.00    -0.051 Br
ATOM     12  O2  LG1 d5015      41.357  14.680  58.134  0.00  0.00    -0.287 OA
ATOM     13  C10 LG1 d5015      39.278  13.601  59.740  0.00  0.00     0.025 C 
ENDROOT
BRANCH  13  14
ATOM     14  C11 LG1 d5015      38.299  13.111  60.664  0.00  0.00    -0.029 A 
ATOM     15  C14 LG1 d5015      38.457  13.186  62.029  0.00  0.00     0.061 A 
ATOM     16  S1  LG1 d5015      37.122  12.518  62.867  0.00  0.00    -0.113 SA
ATOM     17  C13 LG1 d5015      36.327  12.126  61.403  0.00  0.00     0.050 A 
ATOM     18  C12 LG1 d5015      37.065  12.498  60.301  0.00  0.00     0.019 A 
ENDBRANCH  13  14
TORSDOF 1
ENDMDL
MODEL 3
REMARK VINA RESULT:    -5.585      3.606      4.760
REMARK INTER + INTRA:          -6.080
REMARK INTER:                  -5.911
REMARK INTRA:                  -0.168
REMARK UNBOUND:                -0.168
REMARK  1 active torsions:
REMARK  status: ('A' for Active; 'I' for Inactive)
REMARK    1  A    between atoms: C10_13  and  C11_14 
ROOT
ATOM      1  C1  LG1 d5015      41.251  10.419  58.949  0.00  0.00     0.018 C 
ATOM      2  C2  LG1 d5015      41.540   9.198  58.157  0.00  0.00     0.193 C 
ATOM      3  C3  LG1 d5015      42.661   8.385  58.673  0.00  0.00     0.049 A 
ATOM      4  C4  LG1 d5015      43.106   7.271  57.956  0.00  0.00     0.037 A 
ATOM      5  C5  LG1 d5015      44.125   6.475  58.480  0.00  0.00     0.012 A 
ATOM      6  C6  LG1 d5015      44.692   6.780  59.718  0.00  0.00     0.022 A 
ATOM      7  C7  LG1 d5015      44.244   7.891  60.435  0.00  0.00     0.039 A 
ATOM      8  C8  LG1 d5015      43.241   8.704  59.906  0.00  0.00     0.083 A 
ATOM      9  O1  LG1 d5015      42.837   9.767  60.670  0.00  0.00    -0.346 OA
ATOM     10  C9  LG1 d5015      42.323  10.855  59.895  0.00  0.00     0.218 C 
ATOM     11 BR1  LG1 d5015      44.754   4.983  57.501  0.00  0.00    -0.051 Br
ATOM     12  O2  LG1 d5015      40.915   8.874  57.158  0.00  0.00    -0.287 OA
ATOM     13  C10 LG1 d5015      40.085  11.053  58.779  0.00  0.00     0.025 C 
ENDROOT
BRANCH  13  14
ATOM     14  C11 LG1 d5015      39.692  12.237  59.483  0.00  0.00    -0.029 A 
ATOM     15  C14 LG1 d5015      39.009  12.203  60.677  0.00  0.00     0.061 A 
ATOM     16  S1  LG1 d5015      38.682  13.774  61.275  0.00  0.00    -0.113 SA
ATOM     17  C13 LG1 d5015      39.457  14.505  59.935  0.00  0.00     0.050 A 
ATOM     18  C12 LG1 d5015      39.953  13.570  59.053  0.00  0.00     0.019 A 
ENDBRANCH  13  14
TORSDOF 1
ENDMDL
MODEL 4
REMARK VINA RESULT:    -5.165      5.683      7.360
REMARK INTER + INTRA:          -5.635
REMARK INTER:                  -5.467
REMARK INTRA:                  -0.168
REMARK UNBOUND:                -0.168
REMARK  1 active torsions:
REMARK  status: ('A' for Active; 'I' for Inactive)
REMARK    1  A    between atoms: C10_13  and  C11_14 
ROOT
ATOM      1  C1  LG1 d5015      43.795   8.270  59.822  0.00  0.00     0.018 C 
ATOM      2  C2  LG1 d5015      43.753   9.750  59.928  0.00  0.00     0.193 C 
ATOM      3  C3  LG1 d5015      42.612  10.382  59.232  0.00  0.00     0.049 A 
ATOM      4  C4  LG1 d5015      42.519  11.773  59.160  0.00  0.00     0.037 A 
ATOM      5  C5  LG1 d5015      41.407  12.361  58.554  0.00  0.00     0.012 A 
ATOM      6  C6  LG1 d5015      40.388  11.564  58.030  0.00  0.00     0.022 A 
ATOM      7  C7  LG1 d5015      40.481  10.174  58.106  0.00  0.00     0.039 A 
ATOM      8  C8  LG1 d5015      41.599   9.580  58.691  0.00  0.00     0.083 A 
ATOM      9  O1  LG1 d5015      41.617   8.212  58.747  0.00  0.00    -0.346 OA
ATOM     10  C9  LG1 d5015      42.940   7.665  58.757  0.00  0.00     0.218 C 
ATOM     11 BR1  LG1 d5015      41.289  14.244  58.425  0.00  0.00    -0.051 Br
ATOM     12  O2  LG1 d5015      44.584  10.411  60.534  0.00  0.00    -0.287 OA
ATOM     13  C10 LG1 d5015      44.576   7.574  60.657  0.00  0.00     0.025 C 
ENDROOT
BRANCH  13  14
ATOM     14  C11 LG1 d5015      44.700   6.147  60.654  0.00  0.00    -0.029 A 
ATOM     15  C14 LG1 d5015      45.644   5.481  59.907  0.00  0.00     0.061 A 
ATOM     16  S1  LG1 d5015      45.545   3.784  60.111  0.00  0.00    -0.113 SA
ATOM     17  C13 LG1 d5015      44.236   3.936  61.202  0.00  0.00     0.050 A 
ATOM     18  C12 LG1 d5015      43.884   5.252  61.405  0.00  0.00     0.019 A 
ENDBRANCH  13  14
TORSDOF 1
ENDMDL
MODEL 5
REMARK VINA RESULT:    -5.102      5.547      7.025
REMARK INTER + INTRA:          -5.568
REMARK INTER:                  -5.401
REMARK INTRA:                  -0.168
REMARK UNBOUND:                -0.168
REMARK  1 active torsions:
REMARK  status: ('A' for Active; 'I' for Inactive)
REMARK    1  A    between atoms: C10_13  and  C11_14 
ROOT
ATOM      1  C1  LG1 d5015      42.872   8.047  59.563  0.00  0.00     0.018 C 
ATOM      2  C2  LG1 d5015      41.954   8.996  58.885  0.00  0.00     0.193 C 
ATOM      3  C3  LG1 d5015      42.398  10.405  58.915  0.00  0.00     0.049 A 
ATOM      4  C4  LG1 d5015      41.571  11.411  58.411  0.00  0.00     0.037 A 
ATOM      5  C5  LG1 d5015      42.023  12.731  58.388  0.00  0.00     0.012 A 
ATOM      6  C6  LG1 d5015      43.300  13.045  58.856  0.00  0.00     0.022 A 
ATOM      7  C7  LG1 d5015      44.127  12.039  59.356  0.00  0.00     0.039 A 
ATOM      8  C8  LG1 d5015      43.672  10.721  59.402  0.00  0.00     0.083 A 
ATOM      9  O1  LG1 d5015      44.542   9.781  59.889  0.00  0.00    -0.346 OA
ATOM     10  C9  LG1 d5015      43.883   8.656  60.479  0.00  0.00     0.218 C 
ATOM     11 BR1  LG1 d5015      40.896  14.103  57.735  0.00  0.00    -0.051 Br
ATOM     12  O2  LG1 d5015      40.911   8.660  58.342  0.00  0.00    -0.287 OA
ATOM     13  C10 LG1 d5015      42.749   6.734  59.332  0.00  0.00     0.025 C 
ENDROOT
BRANCH  13  14
ATOM     14  C11 LG1 d5015      43.573   5.724  59.924  0.00  0.00    -0.029 A 
ATOM     15  C14 LG1 d5015      44.733   5.269  59.340  0.00  0.00     0.061 A 
ATOM     16  S1  LG1 d5015      45.499   4.064  60.285  0.00  0.00    -0.113 SA
ATOM     17  C13 LG1 d5015      44.278   4.148  61.482  0.00  0.00     0.050 A 
ATOM     18  C12 LG1 d5015      43.310   5.076  61.166  0.00  0.00     0.019 A 
ENDBRANCH  13  14
TORSDOF 1
ENDMDL
