REMARK INTER + INTRA:          -5.500
REMARK INTER:                  -5.329
REMARK INTRA:                  -0.172
REMARK UNBOUND:                -0.200
REMARK  1 active torsions:
REMARK  status: ('A' for Active; 'I' for Inactive)
REMARK    1  A    between atoms: C1_1  and  N1_10 
ROOT
ATOM      1  C1  LG1 d5015      42.101  10.138  58.858  0.00  0.00     0.056 A 
ATOM      2  C2  LG1 d5015      41.423   9.118  58.191  0.00  0.00    -0.033 A 
ATOM      3  C3  LG1 d5015      41.608   7.790  58.577  0.00  0.00     0.028 A 
ATOM      4  C4  LG1 d5015      42.471   7.482  59.629  0.00  0.00     0.012 A 
ATOM      5  C5  LG1 d5015      43.150   8.504  60.296  0.00  0.00     0.028 A 
ATOM      6  C6  LG1 d5015      42.964   9.830  59.909  0.00  0.00    -0.033 A 
ATOM      7  C7  LG1 d5015      43.705  10.902  60.642  0.00  0.00     0.050 C 
ATOM      8 BR1  LG1 d5015      42.722   5.683  60.150  0.00  0.00    -0.051 Br
ATOM      9  C8  LG1 d5015      40.491   9.416  57.062  0.00  0.00     0.050 C 
ENDROOT
BRANCH   1  10
ATOM     10  N1  LG1 d5015      41.910  11.505  58.462  0.00  0.00    -0.265 N 
ATOM     11  C11 LG1 d5015      40.850  12.303  58.892  0.00  0.00     0.148 C 
ATOM     12  S2  LG1 d5015      39.708  12.035  60.089  0.00  0.00    -0.052 SA
ATOM     13  S1  LG1 d5015      40.889  13.839  58.035  0.00  0.00    -0.090 SA
ATOM     14  C10 LG1 d5015      42.503  13.537  57.315  0.00  0.00     0.185 C 
ATOM     15  C9  LG1 d5015      42.821  12.092  57.574  0.00  0.00     0.239 C 
ATOM     16  O1  LG1 d5015      43.778  11.554  57.020  0.00  0.00    -0.272 OA
ENDBRANCH   1  10
TORSDOF 1
ENDMDL
