REMARK INTER + INTRA:          -5.540
REMARK INTER:                  -5.373
REMARK INTRA:                  -0.167
REMARK UNBOUND:                -0.205
REMARK  1 active torsions:
REMARK  status: ('A' for Active; 'I' for Inactive)
REMARK    1  A    between atoms: C1_1  and  N1_10 
ROOT
ATOM      1  C1  LG1 d5015      42.126  10.132  58.936  0.00  0.00     0.056 A 
ATOM      2  C2  LG1 d5015      41.463   9.110  58.259  0.00  0.00    -0.033 A 
ATOM      3  C3  LG1 d5015      41.668   7.780  58.630  0.00  0.00     0.028 A 
ATOM      4  C4  LG1 d5015      42.535   7.474  59.678  0.00  0.00     0.012 A 
ATOM      5  C5  LG1 d5015      43.200   8.499  60.355  0.00  0.00     0.028 A 
ATOM      6  C6  LG1 d5015      42.995   9.826  59.984  0.00  0.00    -0.033 A 
ATOM      7  C7  LG1 d5015      43.720  10.901  60.728  0.00  0.00     0.050 C 
ATOM      8 BR1  LG1 d5015      42.815   5.673  60.179  0.00  0.00    -0.051 Br
ATOM      9  C8  LG1 d5015      40.525   9.406  57.134  0.00  0.00     0.050 C 
ENDROOT
BRANCH   1  10
ATOM     10  N1  LG1 d5015      41.914  11.500  58.556  0.00  0.00    -0.265 N 
ATOM     11  C11 LG1 d5015      40.840  12.277  58.992  0.00  0.00     0.148 C 
ATOM     12  S2  LG1 d5015      39.698  11.976  60.182  0.00  0.00    -0.052 SA
ATOM     13  S1  LG1 d5015      40.858  13.823  58.152  0.00  0.00    -0.090 SA
ATOM     14  C10 LG1 d5015      42.478  13.555  57.435  0.00  0.00     0.185 C 
ATOM     15  C9  LG1 d5015      42.819  12.113  57.678  0.00  0.00     0.239 C 
ATOM     16  O1  LG1 d5015      43.786  11.597  57.122  0.00  0.00    -0.272 OA
ENDBRANCH   1  10
TORSDOF 1
ENDMDL
