REMARK INTER + INTRA:          -6.705
REMARK INTER:                  -6.550
REMARK INTRA:                  -0.155
REMARK UNBOUND:                -0.130
REMARK  1 active torsions:
REMARK  status: ('A' for Active; 'I' for Inactive)
REMARK    1  A    between atoms: C10_13  and  C11_14 
ROOT
ATOM      1  C1  LG1 d5015      40.177  12.853  59.159  0.00  0.00     0.018 C 
ATOM      2  C2  LG1 d5015      41.129  13.411  58.166  0.00  0.00     0.193 C 
ATOM      3  C3  LG1 d5015      41.868  12.394  57.389  0.00  0.00     0.049 A 
ATOM      4  C4  LG1 d5015      42.874  12.785  56.502  0.00  0.00     0.037 A 
ATOM      5  C5  LG1 d5015      43.525  11.824  55.728  0.00  0.00     0.012 A 
ATOM      6  C6  LG1 d5015      43.168  10.479  55.830  0.00  0.00     0.022 A 
ATOM      7  C7  LG1 d5015      42.160  10.089  56.713  0.00  0.00     0.039 A 
ATOM      8  C8  LG1 d5015      41.521  11.043  57.506  0.00  0.00     0.083 A 
ATOM      9  O1  LG1 d5015      40.530  10.594  58.338  0.00  0.00    -0.346 OA
ATOM     10  C9  LG1 d5015      40.358  11.410  59.501  0.00  0.00     0.218 C 
ATOM     11 BR1  LG1 d5015      44.910  12.343  54.548  0.00  0.00    -0.051 Br
ATOM     12  O2  LG1 d5015      41.303  14.608  57.991  0.00  0.00    -0.287 OA
ATOM     13  C10 LG1 d5015      39.236  13.647  59.685  0.00  0.00     0.025 C 
ENDROOT
BRANCH  13  14
ATOM     14  C11 LG1 d5015      38.263  13.226  60.648  0.00  0.00    -0.029 A 
ATOM     15  C14 LG1 d5015      38.396  13.464  61.998  0.00  0.00     0.061 A 
ATOM     16  S1  LG1 d5015      37.074  12.842  62.892  0.00  0.00    -0.113 SA
ATOM     17  C13 LG1 d5015      36.321  12.252  61.473  0.00  0.00     0.050 A 
ATOM     18  C12 LG1 d5015      37.061  12.524  60.343  0.00  0.00     0.019 A 
ENDBRANCH  13  14
TORSDOF 1
ENDMDL
