REMARK INTER + INTRA:          -5.635
REMARK INTER:                  -5.469
REMARK INTRA:                  -0.166
REMARK UNBOUND:                -0.165
REMARK  1 active torsions:
REMARK  status: ('A' for Active; 'I' for Inactive)
REMARK    1  A    between atoms: C10_13  and  C11_14 
ROOT
ATOM      1  C1  LG1 d5015      43.782   8.277  59.824  0.00  0.00     0.018 C 
ATOM      2  C2  LG1 d5015      43.743   9.757  59.936  0.00  0.00     0.193 C 
ATOM      3  C3  LG1 d5015      42.604  10.394  59.243  0.00  0.00     0.049 A 
ATOM      4  C4  LG1 d5015      42.514  11.786  59.177  0.00  0.00     0.037 A 
ATOM      5  C5  LG1 d5015      41.405  12.379  58.573  0.00  0.00     0.012 A 
ATOM      6  C6  LG1 d5015      40.384  11.588  58.046  0.00  0.00     0.022 A 
ATOM      7  C7  LG1 d5015      40.472  10.196  58.116  0.00  0.00     0.039 A 
ATOM      8  C8  LG1 d5015      41.589   9.598  58.698  0.00  0.00     0.083 A 
ATOM      9  O1  LG1 d5015      41.604   8.229  58.749  0.00  0.00    -0.346 OA
ATOM     10  C9  LG1 d5015      42.925   7.679  58.756  0.00  0.00     0.218 C 
ATOM     11 BR1  LG1 d5015      41.292  14.263  58.453  0.00  0.00    -0.051 Br
ATOM     12  O2  LG1 d5015      44.576  10.413  60.545  0.00  0.00    -0.287 OA
ATOM     13  C10 LG1 d5015      44.561   7.575  60.656  0.00  0.00     0.025 C 
ENDROOT
BRANCH  13  14
ATOM     14  C11 LG1 d5015      44.681   6.148  60.647  0.00  0.00    -0.029 A 
ATOM     15  C14 LG1 d5015      45.604   5.481  59.874  0.00  0.00     0.061 A 
ATOM     16  S1  LG1 d5015      45.507   3.784  60.078  0.00  0.00    -0.113 SA
ATOM     17  C13 LG1 d5015      44.226   3.938  61.203  0.00  0.00     0.050 A 
ATOM     18  C12 LG1 d5015      43.882   5.254  61.418  0.00  0.00     0.019 A 
ENDBRANCH  13  14
TORSDOF 1
ENDMDL
