REMARK INTER + INTRA:          -5.581
REMARK INTER:                  -5.451
REMARK INTRA:                  -0.130
REMARK UNBOUND:                -0.130
REMARK  1 active torsions:
REMARK  status: ('A' for Active; 'I' for Inactive)
REMARK    1  A    between atoms: C10_13  and  C11_14 
ROOT
ATOM      1  C1  LG1 d5015      42.924   8.115  59.633  0.00  0.00     0.018 C 
ATOM      2  C2  LG1 d5015      41.998   9.043  58.938  0.00  0.00     0.193 C 
ATOM      3  C3  LG1 d5015      42.429  10.457  58.946  0.00  0.00     0.049 A 
ATOM      4  C4  LG1 d5015      41.593  11.447  58.424  0.00  0.00     0.037 A 
ATOM      5  C5  LG1 d5015      42.033  12.770  58.380  0.00  0.00     0.012 A 
ATOM      6  C6  LG1 d5015      43.306  13.105  58.844  0.00  0.00     0.022 A 
ATOM      7  C7  LG1 d5015      44.142  12.114  59.361  0.00  0.00     0.039 A 
ATOM      8  C8  LG1 d5015      43.700  10.793  59.429  0.00  0.00     0.083 A 
ATOM      9  O1  LG1 d5015      44.578   9.870  59.932  0.00  0.00    -0.346 OA
ATOM     10  C9  LG1 d5015      43.929   8.748  60.540  0.00  0.00     0.218 C 
ATOM     11 BR1  LG1 d5015      40.894  14.121  57.704  0.00  0.00    -0.051 Br
ATOM     12  O2  LG1 d5015      40.959   8.689  58.400  0.00  0.00    -0.287 OA
ATOM     13  C10 LG1 d5015      42.814   6.797  59.423  0.00  0.00     0.025 C 
ENDROOT
BRANCH  13  14
ATOM     14  C11 LG1 d5015      43.647   5.805  60.033  0.00  0.00    -0.029 A 
ATOM     15  C14 LG1 d5015      44.698   5.204  59.376  0.00  0.00     0.061 A 
ATOM     16  S1  LG1 d5015      45.505   4.063  60.365  0.00  0.00    -0.113 SA
ATOM     17  C13 LG1 d5015      44.449   4.370  61.676  0.00  0.00     0.050 A 
ATOM     18  C12 LG1 d5015      43.503   5.322  61.366  0.00  0.00     0.019 A 
ENDBRANCH  13  14
TORSDOF 1
ENDMDL
