MODEL 1
REMARK VINA RESULT:    -6.422      0.000      0.000
REMARK INTER + INTRA:          -6.929
REMARK INTER:                  -7.033
REMARK INTRA:                   0.104
REMARK UNBOUND:                -0.132
REMARK  1 active torsions:
REMARK  status: ('A' for Active; 'I' for Inactive)
REMARK    1  A    between atoms: C10_13  and  C11_14 
ROOT
ATOM      1  C1  LG1 d5015      39.628  12.407  59.643  0.00  0.00     0.018 C 
ATOM      2  C2  LG1 d5015      40.615  11.587  58.897  0.00  0.00     0.193 C 
ATOM      3  C3  LG1 d5015      41.431  12.345  57.925  0.00  0.00     0.049 A 
ATOM      4  C4  LG1 d5015      42.317  11.674  57.080  0.00  0.00     0.037 A 
ATOM      5  C5  LG1 d5015      43.127  12.402  56.208  0.00  0.00     0.012 A 
ATOM      6  C6  LG1 d5015      43.060  13.796  56.184  0.00  0.00     0.022 A 
ATOM      7  C7  LG1 d5015      42.176  14.466  57.031  0.00  0.00     0.039 A 
ATOM      8  C8  LG1 d5015      41.349  13.742  57.890  0.00  0.00     0.083 A 
ATOM      9  O1  LG1 d5015      40.518  14.464  58.705  0.00  0.00    -0.346 OA
ATOM     10  C9  LG1 d5015      39.329  13.754  59.070  0.00  0.00     0.218 C 
ATOM     11 BR1  LG1 d5015      44.308  11.497  55.040  0.00  0.00    -0.051 Br
ATOM     12  O2  LG1 d5015      40.757  10.384  59.058  0.00  0.00    -0.287 OA
ATOM     13  C10 LG1 d5015      39.067  11.912  60.753  0.00  0.00     0.025 C 
ENDROOT
BRANCH  13  14
ATOM     14  C11 LG1 d5015      38.105  12.605  61.556  0.00  0.00    -0.029 A 
ATOM     15  C14 LG1 d5015      36.880  12.070  61.884  0.00  0.00     0.061 A 
ATOM     16  S1  LG1 d5015      35.953  13.133  62.853  0.00  0.00    -0.113 SA
ATOM     17  C13 LG1 d5015      37.191  14.316  62.836  0.00  0.00     0.050 A 
ATOM     18  C12 LG1 d5015      38.285  13.907  62.108  0.00  0.00     0.019 A 
ENDBRANCH  13  14
TORSDOF 1
ENDMDL
MODEL 2
REMARK VINA RESULT:    -6.268      1.097      2.508
REMARK INTER + INTRA:          -6.766
REMARK INTER:                  -6.603
REMARK INTRA:                  -0.163
REMARK UNBOUND:                -0.132
REMARK  1 active torsions:
REMARK  status: ('A' for Active; 'I' for Inactive)
REMARK    1  A    between atoms: C10_13  and  C11_14 
ROOT
ATOM      1  C1  LG1 d5015      40.190  12.783  59.117  0.00  0.00     0.018 C 
ATOM      2  C2  LG1 d5015      41.175  13.368  58.172  0.00  0.00     0.193 C 
ATOM      3  C3  LG1 d5015      41.871  12.379  57.323  0.00  0.00     0.049 A 
ATOM      4  C4  LG1 d5015      42.901  12.787  56.473  0.00  0.00     0.037 A 
ATOM      5  C5  LG1 d5015      43.512  11.857  55.631  0.00  0.00     0.012 A 
ATOM      6  C6  LG1 d5015      43.092  10.526  55.630  0.00  0.00     0.022 A 
ATOM      7  C7  LG1 d5015      42.060  10.120  56.478  0.00  0.00     0.039 A 
ATOM      8  C8  LG1 d5015      41.461  11.040  57.337  0.00  0.00     0.083 A 
ATOM      9  O1  LG1 d5015      40.444  10.578  58.130  0.00  0.00    -0.346 OA
ATOM     10  C9  LG1 d5015      40.302  11.312  59.351  0.00  0.00     0.218 C 
ATOM     11 BR1  LG1 d5015      44.927  12.397  54.498  0.00  0.00    -0.051 Br
ATOM     12  O2  LG1 d5015      41.405  14.566  58.088  0.00  0.00    -0.287 OA
ATOM     13  C10 LG1 d5015      39.284  13.579  59.698  0.00  0.00     0.025 C 
ENDROOT
BRANCH  13  14
ATOM     14  C11 LG1 d5015      38.286  13.133  60.623  0.00  0.00    -0.029 A 
ATOM     15  C14 LG1 d5015      38.437  13.226  61.988  0.00  0.00     0.061 A 
ATOM     16  S1  LG1 d5015      37.077  12.614  62.828  0.00  0.00    -0.113 SA
ATOM     17  C13 LG1 d5015      36.281  12.221  61.364  0.00  0.00     0.050 A 
ATOM     18  C12 LG1 d5015      37.036  12.551  60.261  0.00  0.00     0.019 A 
ENDBRANCH  13  14
TORSDOF 1
ENDMDL
MODEL 3
REMARK VINA RESULT:    -5.589      3.536      4.670
REMARK INTER + INTRA:          -6.048
REMARK INTER:                  -5.882
REMARK INTRA:                  -0.166
REMARK UNBOUND:                -0.132
REMARK  1 active torsions:
REMARK  status: ('A' for Active; 'I' for Inactive)
REMARK    1  A    between atoms: C10_13  and  C11_14 
ROOT
ATOM      1  C1  LG1 d5015      41.167  10.475  58.943  0.00  0.00     0.018 C 
ATOM      2  C2  LG1 d5015      41.450   9.280  58.110  0.00  0.00     0.193 C 
ATOM      3  C3  LG1 d5015      42.578   8.453  58.588  0.00  0.00     0.049 A 
ATOM      4  C4  LG1 d5015      43.018   7.364  57.832  0.00  0.00     0.037 A 
ATOM      5  C5  LG1 d5015      44.043   6.554  58.320  0.00  0.00     0.012 A 
ATOM      6  C6  LG1 d5015      44.622   6.822  59.561  0.00  0.00     0.022 A 
ATOM      7  C7  LG1 d5015      44.180   7.908  60.317  0.00  0.00     0.039 A 
ATOM      8  C8  LG1 d5015      43.170   8.735  59.825  0.00  0.00     0.083 A 
ATOM      9  O1  LG1 d5015      42.772   9.773  60.626  0.00  0.00    -0.346 OA
ATOM     10  C9  LG1 d5015      42.247  10.883  59.891  0.00  0.00     0.218 C 
ATOM     11 BR1  LG1 d5015      44.665   5.096  57.288  0.00  0.00    -0.051 Br
ATOM     12  O2  LG1 d5015      40.815   8.987  57.107  0.00  0.00    -0.287 OA
ATOM     13  C10 LG1 d5015      39.997  11.111  58.805  0.00  0.00     0.025 C 
ENDROOT
BRANCH  13  14
ATOM     14  C11 LG1 d5015      39.610  12.271  59.550  0.00  0.00    -0.029 A 
ATOM     15  C14 LG1 d5015      38.965  12.199  60.765  0.00  0.00     0.061 A 
ATOM     16  S1  LG1 d5015      38.635  13.749  61.411  0.00  0.00    -0.113 SA
ATOM     17  C13 LG1 d5015      39.356  14.523  60.065  0.00  0.00     0.050 A 
ATOM     18  C12 LG1 d5015      39.837  13.619  59.145  0.00  0.00     0.019 A 
ENDBRANCH  13  14
TORSDOF 1
ENDMDL
MODEL 4
REMARK VINA RESULT:    -5.207      5.659      7.297
REMARK INTER + INTRA:          -5.643
REMARK INTER:                  -5.477
REMARK INTRA:                  -0.166
REMARK UNBOUND:                -0.132
REMARK  1 active torsions:
REMARK  status: ('A' for Active; 'I' for Inactive)
REMARK    1  A    between atoms: C10_13  and  C11_14 
ROOT
ATOM      1  C1  LG1 d5015      43.763   8.312  59.845  0.00  0.00     0.018 C 
ATOM      2  C2  LG1 d5015      43.765   9.793  59.937  0.00  0.00     0.193 C 
ATOM      3  C3  LG1 d5015      42.622  10.450  59.268  0.00  0.00     0.049 A 
ATOM      4  C4  LG1 d5015      42.565  11.842  59.185  0.00  0.00     0.037 A 
ATOM      5  C5  LG1 d5015      41.454  12.455  58.604  0.00  0.00     0.012 A 
ATOM      6  C6  LG1 d5015      40.399  11.683  58.118  0.00  0.00     0.022 A 
ATOM      7  C7  LG1 d5015      40.455  10.291  58.205  0.00  0.00     0.039 A 
ATOM      8  C8  LG1 d5015      41.573   9.672  58.764  0.00  0.00     0.083 A 
ATOM      9  O1  LG1 d5015      41.554   8.304  58.833  0.00  0.00    -0.346 OA
ATOM     10  C9  LG1 d5015      42.861   7.721  58.810  0.00  0.00     0.218 C 
ATOM     11 BR1  LG1 d5015      41.385  14.340  58.461  0.00  0.00    -0.051 Br
ATOM     12  O2  LG1 d5015      44.631  10.436  60.513  0.00  0.00    -0.287 OA
ATOM     13  C10 LG1 d5015      44.548   7.601  60.665  0.00  0.00     0.025 C 
ENDROOT
BRANCH  13  14
ATOM     14  C11 LG1 d5015      44.632   6.172  60.672  0.00  0.00    -0.029 A 
ATOM     15  C14 LG1 d5015      45.597   5.476  59.979  0.00  0.00     0.061 A 
ATOM     16  S1  LG1 d5015      45.440   3.784  60.183  0.00  0.00    -0.113 SA
ATOM     17  C13 LG1 d5015      44.077   3.978  61.201  0.00  0.00     0.050 A 
ATOM     18  C12 LG1 d5015      43.751   5.303  61.380  0.00  0.00     0.019 A 
ENDBRANCH  13  14
TORSDOF 1
ENDMDL
MODEL 5
REMARK VINA RESULT:    -5.149      5.594      7.026
REMARK INTER + INTRA:          -5.582
REMARK INTER:                  -5.450
REMARK INTRA:                  -0.132
REMARK UNBOUND:                -0.132
REMARK  1 active torsions:
REMARK  status: ('A' for Active; 'I' for Inactive)
REMARK    1  A    between atoms: C10_13  and  C11_14 
ROOT
ATOM      1  C1  LG1 d5015      42.949   8.043  59.667  0.00  0.00     0.018 C 
ATOM      2  C2  LG1 d5015      42.026   8.975  58.972  0.00  0.00     0.193 C 
ATOM      3  C3  LG1 d5015      42.469  10.385  58.968  0.00  0.00     0.049 A 
ATOM      4  C4  LG1 d5015      41.638  11.379  58.446  0.00  0.00     0.037 A 
ATOM      5  C5  LG1 d5015      42.089  12.698  58.391  0.00  0.00     0.012 A 
ATOM      6  C6  LG1 d5015      43.367  13.025  58.846  0.00  0.00     0.022 A 
ATOM      7  C7  LG1 d5015      44.198  12.030  59.365  0.00  0.00     0.039 A 
ATOM      8  C8  LG1 d5015      43.745  10.714  59.442  0.00  0.00     0.083 A 
ATOM      9  O1  LG1 d5015      44.618   9.786  59.946  0.00  0.00    -0.346 OA
ATOM     10  C9  LG1 d5015      43.964   8.673  60.564  0.00  0.00     0.218 C 
ATOM     11 BR1  LG1 d5015      40.957  14.054  57.713  0.00  0.00    -0.051 Br
ATOM     12  O2  LG1 d5015      40.982   8.626  58.441  0.00  0.00    -0.287 OA
ATOM     13  C10 LG1 d5015      42.826   6.725  59.465  0.00  0.00     0.025 C 
ENDROOT
BRANCH  13  14
ATOM     14  C11 LG1 d5015      43.655   5.729  60.076  0.00  0.00    -0.029 A 
ATOM     15  C14 LG1 d5015      44.702   5.122  59.420  0.00  0.00     0.061 A 
ATOM     16  S1  LG1 d5015      45.504   3.979  60.409  0.00  0.00    -0.113 SA
ATOM     17  C13 LG1 d5015      44.451   4.294  61.722  0.00  0.00     0.050 A 
ATOM     18  C12 LG1 d5015      43.510   5.250  61.411  0.00  0.00     0.019 A 
ENDBRANCH  13  14
TORSDOF 1
ENDMDL
