REMARK INTER + INTRA:          -6.922
REMARK INTER:                  -7.036
REMARK INTRA:                   0.114
REMARK UNBOUND:                -0.168
REMARK  1 active torsions:
REMARK  status: ('A' for Active; 'I' for Inactive)
REMARK    1  A    between atoms: C10_13  and  C11_14 
ROOT
ATOM      1  C1  LG1 d5015      39.613  12.403  59.682  0.00  0.00     0.018 C 
ATOM      2  C2  LG1 d5015      40.608  11.580  58.950  0.00  0.00     0.193 C 
ATOM      3  C3  LG1 d5015      41.424  12.332  57.973  0.00  0.00     0.049 A 
ATOM      4  C4  LG1 d5015      42.318  11.656  57.140  0.00  0.00     0.037 A 
ATOM      5  C5  LG1 d5015      43.128  12.379  56.263  0.00  0.00     0.012 A 
ATOM      6  C6  LG1 d5015      43.054  13.772  56.225  0.00  0.00     0.022 A 
ATOM      7  C7  LG1 d5015      42.164  14.447  57.061  0.00  0.00     0.039 A 
ATOM      8  C8  LG1 d5015      41.336  13.728  57.924  0.00  0.00     0.083 A 
ATOM      9  O1  LG1 d5015      40.498  14.454  58.728  0.00  0.00    -0.346 OA
ATOM     10  C9  LG1 d5015      39.311  13.743  59.094  0.00  0.00     0.218 C 
ATOM     11 BR1  LG1 d5015      44.318  11.468  55.110  0.00  0.00    -0.051 Br
ATOM     12  O2  LG1 d5015      40.755  10.379  59.124  0.00  0.00    -0.287 OA
ATOM     13  C10 LG1 d5015      39.050  11.916  60.795  0.00  0.00     0.025 C 
ENDROOT
BRANCH  13  14
ATOM     14  C11 LG1 d5015      38.081  12.613  61.586  0.00  0.00    -0.029 A 
ATOM     15  C14 LG1 d5015      36.864  12.069  61.929  0.00  0.00     0.061 A 
ATOM     16  S1  LG1 d5015      35.926  13.140  62.878  0.00  0.00    -0.113 SA
ATOM     17  C13 LG1 d5015      37.147  14.338  62.835  0.00  0.00     0.050 A 
ATOM     18  C12 LG1 d5015      38.246  13.928  62.113  0.00  0.00     0.019 A 
ENDBRANCH  13  14
TORSDOF 1
ENDMDL
