REMARK INTER + INTRA:          -5.635
REMARK INTER:                  -5.467
REMARK INTRA:                  -0.168
REMARK UNBOUND:                -0.168
REMARK  1 active torsions:
REMARK  status: ('A' for Active; 'I' for Inactive)
REMARK    1  A    between atoms: C10_13  and  C11_14 
ROOT
ATOM      1  C1  LG1 d5015      43.795   8.270  59.822  0.00  0.00     0.018 C 
ATOM      2  C2  LG1 d5015      43.753   9.750  59.928  0.00  0.00     0.193 C 
ATOM      3  C3  LG1 d5015      42.612  10.382  59.232  0.00  0.00     0.049 A 
ATOM      4  C4  LG1 d5015      42.519  11.773  59.160  0.00  0.00     0.037 A 
ATOM      5  C5  LG1 d5015      41.407  12.361  58.554  0.00  0.00     0.012 A 
ATOM      6  C6  LG1 d5015      40.388  11.564  58.030  0.00  0.00     0.022 A 
ATOM      7  C7  LG1 d5015      40.481  10.174  58.106  0.00  0.00     0.039 A 
ATOM      8  C8  LG1 d5015      41.599   9.580  58.691  0.00  0.00     0.083 A 
ATOM      9  O1  LG1 d5015      41.617   8.212  58.747  0.00  0.00    -0.346 OA
ATOM     10  C9  LG1 d5015      42.940   7.665  58.757  0.00  0.00     0.218 C 
ATOM     11 BR1  LG1 d5015      41.289  14.244  58.425  0.00  0.00    -0.051 Br
ATOM     12  O2  LG1 d5015      44.584  10.411  60.534  0.00  0.00    -0.287 OA
ATOM     13  C10 LG1 d5015      44.576   7.574  60.657  0.00  0.00     0.025 C 
ENDROOT
BRANCH  13  14
ATOM     14  C11 LG1 d5015      44.700   6.147  60.654  0.00  0.00    -0.029 A 
ATOM     15  C14 LG1 d5015      45.644   5.481  59.907  0.00  0.00     0.061 A 
ATOM     16  S1  LG1 d5015      45.545   3.784  60.111  0.00  0.00    -0.113 SA
ATOM     17  C13 LG1 d5015      44.236   3.936  61.202  0.00  0.00     0.050 A 
ATOM     18  C12 LG1 d5015      43.884   5.252  61.405  0.00  0.00     0.019 A 
ENDBRANCH  13  14
TORSDOF 1
ENDMDL
