MODEL 1
REMARK VINA RESULT:    -5.149      0.000      0.000
REMARK INTER + INTRA:          -5.650
REMARK INTER:                  -5.451
REMARK INTRA:                  -0.200
REMARK UNBOUND:                -0.200
REMARK  1 active torsions:
REMARK  status: ('A' for Active; 'I' for Inactive)
REMARK    1  A    between atoms: C1_1  and  N1_10 
ROOT
ATOM      1  C1  LG1 d5015      42.057  10.098  58.972  0.00  0.00     0.056 A 
ATOM      2  C2  LG1 d5015      42.965   9.790  59.985  0.00  0.00    -0.033 A 
ATOM      3  C3  LG1 d5015      43.201   8.458  60.328  0.00  0.00     0.028 A 
ATOM      4  C4  LG1 d5015      42.531   7.436  59.659  0.00  0.00     0.012 A 
ATOM      5  C5  LG1 d5015      41.621   7.744  58.645  0.00  0.00     0.028 A 
ATOM      6  C6  LG1 d5015      41.386   9.075  58.303  0.00  0.00    -0.033 A 
ATOM      7  C7  LG1 d5015      40.407   9.374  57.213  0.00  0.00     0.050 C 
ATOM      8 BR1  LG1 d5015      42.850   5.632  60.125  0.00  0.00    -0.051 Br
ATOM      9  C8  LG1 d5015      43.700  10.864  60.720  0.00  0.00     0.050 C 
ENDROOT
BRANCH   1  10
ATOM     10  N1  LG1 d5015      41.815  11.468  58.617  0.00  0.00    -0.265 N 
ATOM     11  C11 LG1 d5015      42.581  12.186  57.700  0.00  0.00     0.148 C 
ATOM     12  S2  LG1 d5015      43.762  11.665  56.631  0.00  0.00    -0.052 SA
ATOM     13  S1  LG1 d5015      42.063  13.868  57.694  0.00  0.00    -0.090 SA
ATOM     14  C10 LG1 d5015      40.613  13.553  58.701  0.00  0.00     0.185 C 
ATOM     15  C9  LG1 d5015      40.758  12.155  59.230  0.00  0.00     0.239 C 
ATOM     16  O1  LG1 d5015      40.008  11.740  60.112  0.00  0.00    -0.272 OA
ENDBRANCH   1  10
TORSDOF 1
ENDMDL
MODEL 2
REMARK VINA RESULT:    -5.125      0.064      2.152
REMARK INTER + INTRA:          -5.625
REMARK INTER:                  -5.430
REMARK INTRA:                  -0.195
REMARK UNBOUND:                -0.200
REMARK  1 active torsions:
REMARK  status: ('A' for Active; 'I' for Inactive)
REMARK    1  A    between atoms: C1_1  and  N1_10 
ROOT
ATOM      1  C1  LG1 d5015      42.082  10.091  58.973  0.00  0.00     0.056 A 
ATOM      2  C2  LG1 d5015      41.427   9.075  58.277  0.00  0.00    -0.033 A 
ATOM      3  C3  LG1 d5015      41.652   7.741  58.617  0.00  0.00     0.028 A 
ATOM      4  C4  LG1 d5015      42.530   7.422  59.652  0.00  0.00     0.012 A 
ATOM      5  C5  LG1 d5015      43.187   8.440  60.348  0.00  0.00     0.028 A 
ATOM      6  C6  LG1 d5015      42.962   9.773  60.007  0.00  0.00    -0.033 A 
ATOM      7  C7  LG1 d5015      43.679  10.839  60.770  0.00  0.00     0.050 C 
ATOM      8 BR1  LG1 d5015      42.835   5.614  60.111  0.00  0.00    -0.051 Br
ATOM      9  C8  LG1 d5015      40.479   9.385  57.165  0.00  0.00     0.050 C 
ENDROOT
BRANCH   1  10
ATOM     10  N1  LG1 d5015      41.851  11.464  58.624  0.00  0.00    -0.265 N 
ATOM     11  C11 LG1 d5015      42.654  12.195  57.749  0.00  0.00     0.148 C 
ATOM     12  S2  LG1 d5015      43.881  11.690  56.725  0.00  0.00    -0.052 SA
ATOM     13  S1  LG1 d5015      42.131  13.876  57.741  0.00  0.00    -0.090 SA
ATOM     14  C10 LG1 d5015      40.641  13.545  58.681  0.00  0.00     0.185 C 
ATOM     15  C9  LG1 d5015      40.767  12.142  59.199  0.00  0.00     0.239 C 
ATOM     16  O1  LG1 d5015      39.982  11.714  60.043  0.00  0.00    -0.272 OA
ENDBRANCH   1  10
TORSDOF 1
ENDMDL
MODEL 3
REMARK VINA RESULT:    -5.008      1.626      3.010
REMARK INTER + INTRA:          -5.500
REMARK INTER:                  -5.329
REMARK INTRA:                  -0.172
REMARK UNBOUND:                -0.200
REMARK  1 active torsions:
REMARK  status: ('A' for Active; 'I' for Inactive)
REMARK    1  A    between atoms: C1_1  and  N1_10 
ROOT
ATOM      1  C1  LG1 d5015      42.101  10.138  58.858  0.00  0.00     0.056 A 
ATOM      2  C2  LG1 d5015      41.423   9.118  58.191  0.00  0.00    -0.033 A 
ATOM      3  C3  LG1 d5015      41.608   7.790  58.577  0.00  0.00     0.028 A 
ATOM      4  C4  LG1 d5015      42.471   7.482  59.629  0.00  0.00     0.012 A 
ATOM      5  C5  LG1 d5015      43.150   8.504  60.296  0.00  0.00     0.028 A 
ATOM      6  C6  LG1 d5015      42.964   9.830  59.909  0.00  0.00    -0.033 A 
ATOM      7  C7  LG1 d5015      43.705  10.902  60.642  0.00  0.00     0.050 C 
ATOM      8 BR1  LG1 d5015      42.722   5.683  60.150  0.00  0.00    -0.051 Br
ATOM      9  C8  LG1 d5015      40.491   9.416  57.062  0.00  0.00     0.050 C 
ENDROOT
BRANCH   1  10
ATOM     10  N1  LG1 d5015      41.910  11.505  58.462  0.00  0.00    -0.265 N 
ATOM     11  C11 LG1 d5015      40.850  12.303  58.892  0.00  0.00     0.148 C 
ATOM     12  S2  LG1 d5015      39.708  12.035  60.089  0.00  0.00    -0.052 SA
ATOM     13  S1  LG1 d5015      40.889  13.839  58.035  0.00  0.00    -0.090 SA
ATOM     14  C10 LG1 d5015      42.503  13.537  57.315  0.00  0.00     0.185 C 
ATOM     15  C9  LG1 d5015      42.821  12.092  57.574  0.00  0.00     0.239 C 
ATOM     16  O1  LG1 d5015      43.778  11.554  57.020  0.00  0.00    -0.272 OA
ENDBRANCH   1  10
TORSDOF 1
ENDMDL
MODEL 4
REMARK VINA RESULT:    -4.952      3.126      4.642
REMARK INTER + INTRA:          -5.442
REMARK INTER:                  -5.242
REMARK INTRA:                  -0.200
REMARK UNBOUND:                -0.200
REMARK  1 active torsions:
REMARK  status: ('A' for Active; 'I' for Inactive)
REMARK    1  A    between atoms: C1_1  and  N1_10 
ROOT
ATOM      1  C1  LG1 d5015      41.677  12.454  58.235  0.00  0.00     0.056 A 
ATOM      2  C2  LG1 d5015      40.787  13.512  58.050  0.00  0.00    -0.033 A 
ATOM      3  C3  LG1 d5015      39.620  13.582  58.811  0.00  0.00     0.028 A 
ATOM      4  C4  LG1 d5015      39.343  12.595  59.756  0.00  0.00     0.012 A 
ATOM      5  C5  LG1 d5015      40.233  11.536  59.941  0.00  0.00     0.028 A 
ATOM      6  C6  LG1 d5015      41.399  11.466  59.180  0.00  0.00    -0.033 A 
ATOM      7  C7  LG1 d5015      42.333  10.320  59.400  0.00  0.00     0.050 C 
ATOM      8 BR1  LG1 d5015      37.760  12.690  60.786  0.00  0.00    -0.051 Br
ATOM      9  C8  LG1 d5015      41.058  14.585  57.046  0.00  0.00     0.050 C 
ENDROOT
BRANCH   1  10
ATOM     10  N1  LG1 d5015      42.879  12.382  57.453  0.00  0.00    -0.265 N 
ATOM     11  C11 LG1 d5015      44.071  13.023  57.790  0.00  0.00     0.148 C 
ATOM     12  S2  LG1 d5015      44.521  13.802  59.204  0.00  0.00    -0.052 SA
ATOM     13  S1  LG1 d5015      45.231  12.826  56.481  0.00  0.00    -0.090 SA
ATOM     14  C10 LG1 d5015      44.226  11.627  55.606  0.00  0.00     0.185 C 
ATOM     15  C9  LG1 d5015      42.876  11.642  56.263  0.00  0.00     0.239 C 
ATOM     16  O1  LG1 d5015      41.923  11.063  55.745  0.00  0.00    -0.272 OA
ENDBRANCH   1  10
TORSDOF 1
ENDMDL
MODEL 5
REMARK VINA RESULT:    -4.934      3.135      4.518
REMARK INTER + INTRA:          -5.422
REMARK INTER:                  -5.242
REMARK INTRA:                  -0.181
REMARK UNBOUND:                -0.200
REMARK  1 active torsions:
REMARK  status: ('A' for Active; 'I' for Inactive)
REMARK    1  A    between atoms: C1_1  and  N1_10 
ROOT
ATOM      1  C1  LG1 d5015      41.640  12.498  58.247  0.00  0.00     0.056 A 
ATOM      2  C2  LG1 d5015      41.393  11.519  59.209  0.00  0.00    -0.033 A 
ATOM      3  C3  LG1 d5015      40.223  11.568  59.968  0.00  0.00     0.028 A 
ATOM      4  C4  LG1 d5015      39.301  12.594  59.765  0.00  0.00     0.012 A 
ATOM      5  C5  LG1 d5015      39.550  13.575  58.802  0.00  0.00     0.028 A 
ATOM      6  C6  LG1 d5015      40.719  13.525  58.045  0.00  0.00    -0.033 A 
ATOM      7  C7  LG1 d5015      40.957  14.589  57.021  0.00  0.00     0.050 C 
ATOM      8 BR1  LG1 d5015      37.718  12.661  60.795  0.00  0.00    -0.051 Br
ATOM      9  C8  LG1 d5015      42.360  10.406  59.448  0.00  0.00     0.050 C 
ENDROOT
BRANCH   1  10
ATOM     10  N1  LG1 d5015      42.843  12.448  57.465  0.00  0.00    -0.265 N 
ATOM     11  C11 LG1 d5015      44.004  13.159  57.768  0.00  0.00     0.148 C 
ATOM     12  S2  LG1 d5015      44.418  14.022  59.144  0.00  0.00    -0.052 SA
ATOM     13  S1  LG1 d5015      45.169  12.959  56.465  0.00  0.00    -0.090 SA
ATOM     14  C10 LG1 d5015      44.221  11.675  55.648  0.00  0.00     0.185 C 
ATOM     15  C9  LG1 d5015      42.873  11.655  56.309  0.00  0.00     0.239 C 
ATOM     16  O1  LG1 d5015      41.948  11.009  55.822  0.00  0.00    -0.272 OA
ENDBRANCH   1  10
TORSDOF 1
ENDMDL
