REMARK INTER + INTRA:          -6.905
REMARK INTER:                  -7.044
REMARK INTRA:                   0.139
REMARK UNBOUND:                -0.130
REMARK  1 active torsions:
REMARK  status: ('A' for Active; 'I' for Inactive)
REMARK    1  A    between atoms: C10_13  and  C11_14 
ROOT
ATOM      1  C1  LG1 d5015      39.597  12.419  59.699  0.00  0.00     0.018 C 
ATOM      2  C2  LG1 d5015      40.586  11.602  58.952  0.00  0.00     0.193 C 
ATOM      3  C3  LG1 d5015      41.402  12.364  57.983  0.00  0.00     0.049 A 
ATOM      4  C4  LG1 d5015      42.290  11.695  57.138  0.00  0.00     0.037 A 
ATOM      5  C5  LG1 d5015      43.101  12.427  56.269  0.00  0.00     0.012 A 
ATOM      6  C6  LG1 d5015      43.034  13.821  56.251  0.00  0.00     0.022 A 
ATOM      7  C7  LG1 d5015      42.149  14.488  57.099  0.00  0.00     0.039 A 
ATOM      8  C8  LG1 d5015      41.321  13.761  57.954  0.00  0.00     0.083 A 
ATOM      9  O1  LG1 d5015      40.489  14.480  58.771  0.00  0.00    -0.346 OA
ATOM     10  C9  LG1 d5015      39.300  13.769  59.131  0.00  0.00     0.218 C 
ATOM     11 BR1  LG1 d5015      44.283  11.527  55.099  0.00  0.00    -0.051 Br
ATOM     12  O2  LG1 d5015      40.727  10.398  59.108  0.00  0.00    -0.287 OA
ATOM     13  C10 LG1 d5015      39.035  11.920  60.807  0.00  0.00     0.025 C 
ENDROOT
BRANCH  13  14
ATOM     14  C11 LG1 d5015      38.072  12.610  61.611  0.00  0.00    -0.029 A 
ATOM     15  C14 LG1 d5015      36.869  12.052  61.981  0.00  0.00     0.061 A 
ATOM     16  S1  LG1 d5015      35.935  13.119  62.941  0.00  0.00    -0.113 SA
ATOM     17  C13 LG1 d5015      37.139  14.332  62.863  0.00  0.00     0.050 A 
ATOM     18  C12 LG1 d5015      38.229  13.931  62.123  0.00  0.00     0.019 A 
ENDBRANCH  13  14
TORSDOF 1
ENDMDL
