REMARK INTER + INTRA:          -7.184
REMARK INTER:                  -6.631
REMARK INTRA:                  -0.553
REMARK UNBOUND:                -0.546
REMARK  2 active torsions:
REMARK  status: ('A' for Active; 'I' for Inactive)
REMARK    1  A    between atoms: C1_1  and  N1_15 
REMARK    2  A    between atoms: C7_9  and  C4_4 
ROOT
ATOM      1  C1  LG1 d5015      41.594  10.357  59.161  0.00  0.00     0.141 A 
ATOM      2  C2  LG1 d5015      42.741  10.231  59.945  0.00  0.00     0.187 A 
ATOM      3  C3  LG1 d5015      43.494   9.058  59.896  0.00  0.00     0.175 A 
ATOM      4  C4  LG1 d5015      43.100   8.010  59.064  0.00  0.00     0.131 A 
ATOM      5  C5  LG1 d5015      41.953   8.136  58.281  0.00  0.00     0.175 A 
ATOM      6  C6  LG1 d5015      41.201   9.309  58.329  0.00  0.00     0.187 A 
ATOM      7  F1  LG1 d5015      40.100   9.415  57.570  0.00  0.00    -0.200 F 
ATOM      8  F2  LG1 d5015      41.566   7.133  57.477  0.00  0.00    -0.202 F 
ATOM      9  F6  LG1 d5015      44.595   8.947  60.654  0.00  0.00    -0.202 F 
ATOM     10  F7  LG1 d5015      43.131  11.230  60.750  0.00  0.00    -0.200 F 
ENDROOT
BRANCH   1  11
ATOM     11  N1  LG1 d5015      40.847  11.519  59.210  0.00  0.00    -0.232 N 
ATOM     12  N2  LG1 d5015      39.867  11.646  60.122  0.00  0.00    -0.172 NA
ATOM     13  C10 LG1 d5015      39.378  12.863  59.874  0.00  0.00     0.053 A 
ATOM     14  C9  LG1 d5015      40.039  13.509  58.811  0.00  0.00     0.055 A 
ATOM     15  C11 LG1 d5015      38.264  13.383  60.685  0.00  0.00     0.072 C 
ATOM     16  C8  LG1 d5015      40.990  12.607  58.401  0.00  0.00     0.035 A 
ATOM     17  C12 LG1 d5015      41.999  12.700  57.327  0.00  0.00     0.070 C 
ENDBRANCH   1  11
BRANCH   4  18
ATOM     18  C7  LG1 d5015      43.905   6.755  59.012  0.00  0.00     0.423 C 
ATOM     19  F4  LG1 d5015      43.177   5.628  59.261  0.00  0.00    -0.166 F 
ATOM     20  F3  LG1 d5015      44.928   6.725  59.916  0.00  0.00    -0.166 F 
ATOM     21  F5  LG1 d5015      44.487   6.555  57.795  0.00  0.00    -0.166 F 
ENDBRANCH   4  18
TORSDOF 2
ENDMDL
