REMARK INTER + INTRA:          -5.645
REMARK INTER:                  -5.481
REMARK INTRA:                  -0.164
REMARK UNBOUND:                -0.100
REMARK  1 active torsions:
REMARK  status: ('A' for Active; 'I' for Inactive)
REMARK    1  A    between atoms: C10_13  and  C11_14 
ROOT
ATOM      1  C1  LG1 d5015      43.758   8.278  59.824  0.00  0.00     0.018 C 
ATOM      2  C2  LG1 d5015      43.723   9.758  59.925  0.00  0.00     0.193 C 
ATOM      3  C3  LG1 d5015      42.580  10.392  59.235  0.00  0.00     0.049 A 
ATOM      4  C4  LG1 d5015      42.491  11.784  59.160  0.00  0.00     0.037 A 
ATOM      5  C5  LG1 d5015      41.379  12.375  58.559  0.00  0.00     0.012 A 
ATOM      6  C6  LG1 d5015      40.353  11.581  58.045  0.00  0.00     0.022 A 
ATOM      7  C7  LG1 d5015      40.440  10.190  58.124  0.00  0.00     0.039 A 
ATOM      8  C8  LG1 d5015      41.560   9.594  58.703  0.00  0.00     0.083 A 
ATOM      9  O1  LG1 d5015      41.573   8.225  58.763  0.00  0.00    -0.346 OA
ATOM     10  C9  LG1 d5015      42.894   7.673  58.765  0.00  0.00     0.218 C 
ATOM     11 BR1  LG1 d5015      41.267  14.258  58.427  0.00  0.00    -0.051 Br
ATOM     12  O2  LG1 d5015      44.560  10.417  60.524  0.00  0.00    -0.287 OA
ATOM     13  C10 LG1 d5015      44.542   7.581  60.655  0.00  0.00     0.025 C 
ENDROOT
BRANCH  13  14
ATOM     14  C11 LG1 d5015      44.660   6.154  60.655  0.00  0.00    -0.029 A 
ATOM     15  C14 LG1 d5015      45.575   5.479  59.878  0.00  0.00     0.061 A 
ATOM     16  S1  LG1 d5015      45.477   3.784  60.096  0.00  0.00    -0.113 SA
ATOM     17  C13 LG1 d5015      44.207   3.948  61.231  0.00  0.00     0.050 A 
ATOM     18  C12 LG1 d5015      43.867   5.266  61.439  0.00  0.00     0.019 A 
ENDBRANCH  13  14
TORSDOF 1
ENDMDL
