MODEL 1
REMARK VINA RESULT:    -5.174      0.000      0.000
REMARK INTER + INTRA:          -5.653
REMARK INTER:                  -5.455
REMARK INTRA:                  -0.197
REMARK UNBOUND:                -0.176
REMARK  1 active torsions:
REMARK  status: ('A' for Active; 'I' for Inactive)
REMARK    1  A    between atoms: C1_1  and  N1_10 
ROOT
ATOM      1  C1  LG1 d5015      42.068  10.107  58.984  0.00  0.00     0.056 A 
ATOM      2  C2  LG1 d5015      42.966   9.797  60.005  0.00  0.00    -0.033 A 
ATOM      3  C3  LG1 d5015      43.208   8.464  60.340  0.00  0.00     0.028 A 
ATOM      4  C4  LG1 d5015      42.553   7.442  59.654  0.00  0.00     0.012 A 
ATOM      5  C5  LG1 d5015      41.654   7.753  58.633  0.00  0.00     0.028 A 
ATOM      6  C6  LG1 d5015      41.412   9.084  58.299  0.00  0.00    -0.033 A 
ATOM      7  C7  LG1 d5015      40.444   9.385  57.200  0.00  0.00     0.050 C 
ATOM      8 BR1  LG1 d5015      42.881   5.637  60.110  0.00  0.00    -0.051 Br
ATOM      9  C8  LG1 d5015      43.684  10.870  60.757  0.00  0.00     0.050 C 
ENDROOT
BRANCH   1  10
ATOM     10  N1  LG1 d5015      41.819  11.478  58.638  0.00  0.00    -0.265 N 
ATOM     11  C11 LG1 d5015      42.599  12.213  57.745  0.00  0.00     0.148 C 
ATOM     12  S2  LG1 d5015      43.809  11.715  56.699  0.00  0.00    -0.052 SA
ATOM     13  S1  LG1 d5015      42.064  13.889  57.746  0.00  0.00    -0.090 SA
ATOM     14  C10 LG1 d5015      40.595  13.549  58.716  0.00  0.00     0.185 C 
ATOM     15  C9  LG1 d5015      40.741  12.148  59.234  0.00  0.00     0.239 C 
ATOM     16  O1  LG1 d5015      39.977  11.716  60.093  0.00  0.00    -0.272 OA
ENDBRANCH   1  10
TORSDOF 1
ENDMDL
MODEL 2
REMARK VINA RESULT:    -5.091      0.117      2.154
REMARK INTER + INTRA:          -5.564
REMARK INTER:                  -5.369
REMARK INTRA:                  -0.195
REMARK UNBOUND:                -0.176
REMARK  1 active torsions:
REMARK  status: ('A' for Active; 'I' for Inactive)
REMARK    1  A    between atoms: C1_1  and  N1_10 
ROOT
ATOM      1  C1  LG1 d5015      42.011  10.085  58.932  0.00  0.00     0.056 A 
ATOM      2  C2  LG1 d5015      41.375   9.082  58.202  0.00  0.00    -0.033 A 
ATOM      3  C3  LG1 d5015      41.625   7.741  58.495  0.00  0.00     0.028 A 
ATOM      4  C4  LG1 d5015      42.510   7.403  59.519  0.00  0.00     0.012 A 
ATOM      5  C5  LG1 d5015      43.147   8.408  60.249  0.00  0.00     0.028 A 
ATOM      6  C6  LG1 d5015      42.897   9.747  59.955  0.00  0.00    -0.033 A 
ATOM      7  C7  LG1 d5015      43.595  10.800  60.755  0.00  0.00     0.050 C 
ATOM      8 BR1  LG1 d5015      42.849   5.586  59.915  0.00  0.00    -0.051 Br
ATOM      9  C8  LG1 d5015      40.421   9.412  57.100  0.00  0.00     0.050 C 
ENDROOT
BRANCH   1  10
ATOM     10  N1  LG1 d5015      41.754  11.465  58.631  0.00  0.00    -0.265 N 
ATOM     11  C11 LG1 d5015      42.543  12.241  57.782  0.00  0.00     0.148 C 
ATOM     12  S2  LG1 d5015      43.780  11.794  56.744  0.00  0.00    -0.052 SA
ATOM     13  S1  LG1 d5015      41.989  13.911  57.833  0.00  0.00    -0.090 SA
ATOM     14  C10 LG1 d5015      40.505  13.519  58.759  0.00  0.00     0.185 C 
ATOM     15  C9  LG1 d5015      40.657  12.101  59.229  0.00  0.00     0.239 C 
ATOM     16  O1  LG1 d5015      39.880  11.630  60.056  0.00  0.00    -0.272 OA
ENDBRANCH   1  10
TORSDOF 1
ENDMDL
MODEL 3
REMARK VINA RESULT:    -5.053      1.624      3.010
REMARK INTER + INTRA:          -5.524
REMARK INTER:                  -5.370
REMARK INTRA:                  -0.155
REMARK UNBOUND:                -0.176
REMARK  1 active torsions:
REMARK  status: ('A' for Active; 'I' for Inactive)
REMARK    1  A    between atoms: C1_1  and  N1_10 
ROOT
ATOM      1  C1  LG1 d5015      42.141  10.134  58.913  0.00  0.00     0.056 A 
ATOM      2  C2  LG1 d5015      41.460   9.111  58.254  0.00  0.00    -0.033 A 
ATOM      3  C3  LG1 d5015      41.655   7.783  58.637  0.00  0.00     0.028 A 
ATOM      4  C4  LG1 d5015      42.531   7.479  59.678  0.00  0.00     0.012 A 
ATOM      5  C5  LG1 d5015      43.214   8.504  60.337  0.00  0.00     0.028 A 
ATOM      6  C6  LG1 d5015      43.019   9.829  59.954  0.00  0.00    -0.033 A 
ATOM      7  C7  LG1 d5015      43.764  10.904  60.678  0.00  0.00     0.050 C 
ATOM      8 BR1  LG1 d5015      42.797   5.681  60.196  0.00  0.00    -0.051 Br
ATOM      9  C8  LG1 d5015      40.513   9.405  57.136  0.00  0.00     0.050 C 
ENDROOT
BRANCH   1  10
ATOM     10  N1  LG1 d5015      41.940  11.500  58.520  0.00  0.00    -0.265 N 
ATOM     11  C11 LG1 d5015      40.871  12.287  58.948  0.00  0.00     0.148 C 
ATOM     12  S2  LG1 d5015      39.726  12.005  60.138  0.00  0.00    -0.052 SA
ATOM     13  S1  LG1 d5015      40.900  13.826  58.094  0.00  0.00    -0.090 SA
ATOM     14  C10 LG1 d5015      42.520  13.540  57.382  0.00  0.00     0.185 C 
ATOM     15  C9  LG1 d5015      42.850  12.098  57.638  0.00  0.00     0.239 C 
ATOM     16  O1  LG1 d5015      43.814  11.570  57.088  0.00  0.00    -0.272 OA
ENDBRANCH   1  10
TORSDOF 1
ENDMDL
MODEL 4
REMARK VINA RESULT:    -5.048      1.626      2.105
REMARK INTER + INTRA:          -5.520
REMARK INTER:                  -5.348
REMARK INTRA:                  -0.172
REMARK UNBOUND:                -0.176
REMARK  1 active torsions:
REMARK  status: ('A' for Active; 'I' for Inactive)
REMARK    1  A    between atoms: C1_1  and  N1_10 
ROOT
ATOM      1  C1  LG1 d5015      42.105  10.142  58.869  0.00  0.00     0.056 A 
ATOM      2  C2  LG1 d5015      42.963   9.829  59.923  0.00  0.00    -0.033 A 
ATOM      3  C3  LG1 d5015      43.157   8.497  60.292  0.00  0.00     0.028 A 
ATOM      4  C4  LG1 d5015      42.493   7.480  59.608  0.00  0.00     0.012 A 
ATOM      5  C5  LG1 d5015      41.633   7.794  58.553  0.00  0.00     0.028 A 
ATOM      6  C6  LG1 d5015      41.440   9.124  58.185  0.00  0.00    -0.033 A 
ATOM      7  C7  LG1 d5015      40.514   9.429  57.052  0.00  0.00     0.050 C 
ATOM      8 BR1  LG1 d5015      42.754   5.676  60.109  0.00  0.00    -0.051 Br
ATOM      9  C8  LG1 d5015      43.690  10.897  60.674  0.00  0.00     0.050 C 
ENDROOT
BRANCH   1  10
ATOM     10  N1  LG1 d5015      41.907  11.512  58.488  0.00  0.00    -0.265 N 
ATOM     11  C11 LG1 d5015      40.838  12.297  58.921  0.00  0.00     0.148 C 
ATOM     12  S2  LG1 d5015      39.689  12.006  60.105  0.00  0.00    -0.052 SA
ATOM     13  S1  LG1 d5015      40.872  13.843  58.080  0.00  0.00    -0.090 SA
ATOM     14  C10 LG1 d5015      42.493  13.562  57.370  0.00  0.00     0.185 C 
ATOM     15  C9  LG1 d5015      42.821  12.117  57.614  0.00  0.00     0.239 C 
ATOM     16  O1  LG1 d5015      43.784  11.593  57.062  0.00  0.00    -0.272 OA
ENDBRANCH   1  10
TORSDOF 1
ENDMDL
MODEL 5
REMARK VINA RESULT:    -4.900      3.147      4.557
REMARK INTER + INTRA:          -5.362
REMARK INTER:                  -5.186
REMARK INTRA:                  -0.176
REMARK UNBOUND:                -0.176
REMARK  1 active torsions:
REMARK  status: ('A' for Active; 'I' for Inactive)
REMARK    1  A    between atoms: C1_1  and  N1_10 
ROOT
ATOM      1  C1  LG1 d5015      41.714  12.504  58.222  0.00  0.00     0.056 A 
ATOM      2  C2  LG1 d5015      41.420  11.522  59.167  0.00  0.00    -0.033 A 
ATOM      3  C3  LG1 d5015      40.247  11.605  59.917  0.00  0.00     0.028 A 
ATOM      4  C4  LG1 d5015      39.368  12.670  59.723  0.00  0.00     0.012 A 
ATOM      5  C5  LG1 d5015      39.663  13.654  58.777  0.00  0.00     0.028 A 
ATOM      6  C6  LG1 d5015      40.836  13.570  58.028  0.00  0.00    -0.033 A 
ATOM      7  C7  LG1 d5015      41.124  14.639  57.023  0.00  0.00     0.050 C 
ATOM      8 BR1  LG1 d5015      37.780  12.784  60.741  0.00  0.00    -0.051 Br
ATOM      9  C8  LG1 d5015      42.341  10.368  59.397  0.00  0.00     0.050 C 
ENDROOT
BRANCH   1  10
ATOM     10  N1  LG1 d5015      42.921  12.418  57.448  0.00  0.00    -0.265 N 
ATOM     11  C11 LG1 d5015      44.105  13.083  57.769  0.00  0.00     0.148 C 
ATOM     12  S2  LG1 d5015      44.538  13.914  59.158  0.00  0.00    -0.052 SA
ATOM     13  S1  LG1 d5015      45.272  12.855  56.472  0.00  0.00    -0.090 SA
ATOM     14  C10 LG1 d5015      44.285  11.616  55.634  0.00  0.00     0.185 C 
ATOM     15  C9  LG1 d5015      42.931  11.638  56.284  0.00  0.00     0.239 C 
ATOM     16  O1  LG1 d5015      41.987  11.032  55.783  0.00  0.00    -0.272 OA
ENDBRANCH   1  10
TORSDOF 1
ENDMDL
