REMARK INTER + INTRA:          -7.202
REMARK INTER:                  -6.644
REMARK INTRA:                  -0.558
REMARK UNBOUND:                -0.546
REMARK  2 active torsions:
REMARK  status: ('A' for Active; 'I' for Inactive)
REMARK    1  A    between atoms: C1_1  and  N1_15 
REMARK    2  A    between atoms: C7_9  and  C4_4 
ROOT
ATOM      1  C1  LG1 d5015      41.567  10.314  59.154  0.00  0.00     0.141 A 
ATOM      2  C2  LG1 d5015      41.169   9.295  58.288  0.00  0.00     0.187 A 
ATOM      3  C3  LG1 d5015      41.911   8.117  58.209  0.00  0.00     0.175 A 
ATOM      4  C4  LG1 d5015      43.053   7.958  58.995  0.00  0.00     0.131 A 
ATOM      5  C5  LG1 d5015      43.452   8.977  59.860  0.00  0.00     0.175 A 
ATOM      6  C6  LG1 d5015      42.709  10.154  59.939  0.00  0.00     0.187 A 
ATOM      7  F1  LG1 d5015      43.104  11.124  60.776  0.00  0.00    -0.200 F 
ATOM      8  F2  LG1 d5015      44.548   8.832  60.619  0.00  0.00    -0.202 F 
ATOM      9  F6  LG1 d5015      41.519   7.144  57.374  0.00  0.00    -0.202 F 
ATOM     10  F7  LG1 d5015      40.073   9.435  57.528  0.00  0.00    -0.200 F 
ENDROOT
BRANCH   1  11
ATOM     11  N1  LG1 d5015      40.831  11.482  59.233  0.00  0.00    -0.232 N 
ATOM     12  N2  LG1 d5015      39.866  11.602  60.161  0.00  0.00    -0.172 NA
ATOM     13  C10 LG1 d5015      39.386  12.828  59.941  0.00  0.00     0.053 A 
ATOM     14  C9  LG1 d5015      40.037  13.486  58.881  0.00  0.00     0.055 A 
ATOM     15  C11 LG1 d5015      38.288  13.344  60.777  0.00  0.00     0.072 C 
ATOM     16  C8  LG1 d5015      40.974  12.583  58.441  0.00  0.00     0.035 A 
ATOM     17  C12 LG1 d5015      41.968  12.684  57.355  0.00  0.00     0.070 C 
ENDBRANCH   1  11
BRANCH   4  18
ATOM     18  C7  LG1 d5015      43.847   6.698  58.908  0.00  0.00     0.423 C 
ATOM     19  F4  LG1 d5015      43.123   5.575  59.187  0.00  0.00    -0.166 F 
ATOM     20  F3  LG1 d5015      44.908   6.660  59.768  0.00  0.00    -0.166 F 
ATOM     21  F5  LG1 d5015      44.376   6.495  57.667  0.00  0.00    -0.166 F 
ENDBRANCH   4  18
TORSDOF 2
ENDMDL
