REMARK INTER + INTRA:          -5.643
REMARK INTER:                  -5.477
REMARK INTRA:                  -0.166
REMARK UNBOUND:                -0.132
REMARK  1 active torsions:
REMARK  status: ('A' for Active; 'I' for Inactive)
REMARK    1  A    between atoms: C10_13  and  C11_14 
ROOT
ATOM      1  C1  LG1 d5015      43.763   8.312  59.845  0.00  0.00     0.018 C 
ATOM      2  C2  LG1 d5015      43.765   9.793  59.937  0.00  0.00     0.193 C 
ATOM      3  C3  LG1 d5015      42.622  10.450  59.268  0.00  0.00     0.049 A 
ATOM      4  C4  LG1 d5015      42.565  11.842  59.185  0.00  0.00     0.037 A 
ATOM      5  C5  LG1 d5015      41.454  12.455  58.604  0.00  0.00     0.012 A 
ATOM      6  C6  LG1 d5015      40.399  11.683  58.118  0.00  0.00     0.022 A 
ATOM      7  C7  LG1 d5015      40.455  10.291  58.205  0.00  0.00     0.039 A 
ATOM      8  C8  LG1 d5015      41.573   9.672  58.764  0.00  0.00     0.083 A 
ATOM      9  O1  LG1 d5015      41.554   8.304  58.833  0.00  0.00    -0.346 OA
ATOM     10  C9  LG1 d5015      42.861   7.721  58.810  0.00  0.00     0.218 C 
ATOM     11 BR1  LG1 d5015      41.385  14.340  58.461  0.00  0.00    -0.051 Br
ATOM     12  O2  LG1 d5015      44.631  10.436  60.513  0.00  0.00    -0.287 OA
ATOM     13  C10 LG1 d5015      44.548   7.601  60.665  0.00  0.00     0.025 C 
ENDROOT
BRANCH  13  14
ATOM     14  C11 LG1 d5015      44.632   6.172  60.672  0.00  0.00    -0.029 A 
ATOM     15  C14 LG1 d5015      45.597   5.476  59.979  0.00  0.00     0.061 A 
ATOM     16  S1  LG1 d5015      45.440   3.784  60.183  0.00  0.00    -0.113 SA
ATOM     17  C13 LG1 d5015      44.077   3.978  61.201  0.00  0.00     0.050 A 
ATOM     18  C12 LG1 d5015      43.751   5.303  61.380  0.00  0.00     0.019 A 
ENDBRANCH  13  14
TORSDOF 1
ENDMDL
