REMARK INTER + INTRA:          -7.719
REMARK INTER:                  -7.192
REMARK INTRA:                  -0.527
REMARK UNBOUND:                -0.546
REMARK  2 active torsions:
REMARK  status: ('A' for Active; 'I' for Inactive)
REMARK    1  A    between atoms: C1_1  and  N1_15 
REMARK    2  A    between atoms: C7_9  and  C4_4 
ROOT
ATOM      1  C1  LG1 d5015      41.453  13.789  58.037  0.00  0.00     0.141 A 
ATOM      2  C2  LG1 d5015      40.912  14.720  58.924  0.00  0.00     0.187 A 
ATOM      3  C3  LG1 d5015      39.839  14.363  59.740  0.00  0.00     0.175 A 
ATOM      4  C4  LG1 d5015      39.307  13.076  59.670  0.00  0.00     0.131 A 
ATOM      5  C5  LG1 d5015      39.847  12.146  58.783  0.00  0.00     0.175 A 
ATOM      6  C6  LG1 d5015      40.920  12.502  57.967  0.00  0.00     0.187 A 
ATOM      7  F1  LG1 d5015      41.429  11.597  57.119  0.00  0.00    -0.200 F 
ATOM      8  F2  LG1 d5015      39.340  10.906  58.708  0.00  0.00    -0.202 F 
ATOM      9  F6  LG1 d5015      39.327  15.266  60.590  0.00  0.00    -0.202 F 
ATOM     10  F7  LG1 d5015      41.415  15.961  59.002  0.00  0.00    -0.200 F 
ENDROOT
BRANCH   1  11
ATOM     11  N1  LG1 d5015      42.517  14.142  57.226  0.00  0.00    -0.232 N 
ATOM     12  N2  LG1 d5015      42.291  14.525  55.958  0.00  0.00    -0.172 NA
ATOM     13  C10 LG1 d5015      43.518  14.780  55.496  0.00  0.00     0.053 A 
ATOM     14  C9  LG1 d5015      44.519  14.561  56.461  0.00  0.00     0.055 A 
ATOM     15  C11 LG1 d5015      43.696  15.238  54.107  0.00  0.00     0.072 C 
ATOM     16  C8  LG1 d5015      43.834  14.146  57.577  0.00  0.00     0.035 A 
ATOM     17  C12 LG1 d5015      44.324  13.766  58.917  0.00  0.00     0.070 C 
ENDBRANCH   1  11
BRANCH   4  18
ATOM     18  C7  LG1 d5015      38.158  12.696  60.543  0.00  0.00     0.423 C 
ATOM     19  F4  LG1 d5015      37.791  13.675  61.421  0.00  0.00    -0.166 F 
ATOM     20  F3  LG1 d5015      38.399  11.596  61.316  0.00  0.00    -0.166 F 
ATOM     21  F5  LG1 d5015      37.032  12.402  59.830  0.00  0.00    -0.166 F 
ENDBRANCH   4  18
TORSDOF 2
ENDMDL
