REMARK INTER + INTRA:          -7.119
REMARK INTER:                  -6.573
REMARK INTRA:                  -0.546
REMARK UNBOUND:                -0.546
REMARK  2 active torsions:
REMARK  status: ('A' for Active; 'I' for Inactive)
REMARK    1  A    between atoms: C1_1  and  N1_15 
REMARK    2  A    between atoms: C7_9  and  C4_4 
ROOT
ATOM      1  C1  LG1 d5015      41.793  10.639  58.980  0.00  0.00     0.141 A 
ATOM      2  C2  LG1 d5015      42.879  10.562  59.852  0.00  0.00     0.187 A 
ATOM      3  C3  LG1 d5015      43.407   9.319  60.201  0.00  0.00     0.175 A 
ATOM      4  C4  LG1 d5015      42.848   8.153  59.679  0.00  0.00     0.131 A 
ATOM      5  C5  LG1 d5015      41.762   8.229  58.809  0.00  0.00     0.175 A 
ATOM      6  C6  LG1 d5015      41.235   9.472  58.459  0.00  0.00     0.187 A 
ATOM      7  F1  LG1 d5015      40.190   9.530  57.621  0.00  0.00    -0.200 F 
ATOM      8  F2  LG1 d5015      41.217   7.112  58.302  0.00  0.00    -0.202 F 
ATOM      9  F6  LG1 d5015      44.453   9.257  61.039  0.00  0.00    -0.202 F 
ATOM     10  F7  LG1 d5015      43.427  11.676  60.361  0.00  0.00    -0.200 F 
ENDROOT
BRANCH   1  11
ATOM     11  N1  LG1 d5015      41.269  11.871  58.634  0.00  0.00    -0.232 N 
ATOM     12  N2  LG1 d5015      41.817  12.570  57.625  0.00  0.00    -0.172 NA
ATOM     13  C10 LG1 d5015      41.070  13.676  57.583  0.00  0.00     0.053 A 
ATOM     14  C9  LG1 d5015      40.053  13.684  58.557  0.00  0.00     0.055 A 
ATOM     15  C11 LG1 d5015      41.361  14.717  56.582  0.00  0.00     0.072 C 
ATOM     16  C8  LG1 d5015      40.210  12.494  59.225  0.00  0.00     0.035 A 
ATOM     17  C12 LG1 d5015      39.448  11.919  60.351  0.00  0.00     0.070 C 
ENDBRANCH   1  11
BRANCH   4  18
ATOM     18  C7  LG1 d5015      43.413   6.823  60.054  0.00  0.00     0.423 C 
ATOM     19  F4  LG1 d5015      44.743   6.697  59.776  0.00  0.00    -0.166 F 
ATOM     20  F3  LG1 d5015      42.814   5.775  59.415  0.00  0.00    -0.166 F 
ATOM     21  F5  LG1 d5015      43.289   6.558  61.387  0.00  0.00    -0.166 F 
ENDBRANCH   4  18
TORSDOF 2
ENDMDL
