MODEL 1
REMARK VINA RESULT:    -5.138      0.000      0.000
REMARK INTER + INTRA:          -5.643
REMARK INTER:                  -5.441
REMARK INTRA:                  -0.203
REMARK UNBOUND:                -0.205
REMARK  1 active torsions:
REMARK  status: ('A' for Active; 'I' for Inactive)
REMARK    1  A    between atoms: C1_1  and  N1_10 
ROOT
ATOM      1  C1  LG1 d5015      42.096  10.082  58.995  0.00  0.00     0.056 A 
ATOM      2  C2  LG1 d5015      41.437   9.054  58.321  0.00  0.00    -0.033 A 
ATOM      3  C3  LG1 d5015      41.677   7.725  58.671  0.00  0.00     0.028 A 
ATOM      4  C4  LG1 d5015      42.574   7.424  59.695  0.00  0.00     0.012 A 
ATOM      5  C5  LG1 d5015      43.235   8.453  60.369  0.00  0.00     0.028 A 
ATOM      6  C6  LG1 d5015      42.995   9.781  60.019  0.00  0.00    -0.033 A 
ATOM      7  C7  LG1 d5015      43.716  10.860  60.759  0.00  0.00     0.050 C 
ATOM      8 BR1  LG1 d5015      42.900   5.623  60.167  0.00  0.00    -0.051 Br
ATOM      9  C8  LG1 d5015      40.468   9.346  57.221  0.00  0.00     0.050 C 
ENDROOT
BRANCH   1  10
ATOM     10  N1  LG1 d5015      41.849  11.450  58.637  0.00  0.00    -0.265 N 
ATOM     11  C11 LG1 d5015      42.619  12.171  57.724  0.00  0.00     0.148 C 
ATOM     12  S2  LG1 d5015      43.812  11.654  56.666  0.00  0.00    -0.052 SA
ATOM     13  S1  LG1 d5015      42.092  13.850  57.712  0.00  0.00    -0.090 SA
ATOM     14  C10 LG1 d5015      40.636  13.529  58.707  0.00  0.00     0.185 C 
ATOM     15  C9  LG1 d5015      40.783  12.133  59.239  0.00  0.00     0.239 C 
ATOM     16  O1  LG1 d5015      40.029  11.715  60.115  0.00  0.00    -0.272 OA
ENDBRANCH   1  10
TORSDOF 1
ENDMDL
MODEL 2
REMARK VINA RESULT:    -5.128      0.066      2.152
REMARK INTER + INTRA:          -5.632
REMARK INTER:                  -5.432
REMARK INTRA:                  -0.200
REMARK UNBOUND:                -0.205
REMARK  1 active torsions:
REMARK  status: ('A' for Active; 'I' for Inactive)
REMARK    1  A    between atoms: C1_1  and  N1_10 
ROOT
ATOM      1  C1  LG1 d5015      42.061  10.113  58.958  0.00  0.00     0.056 A 
ATOM      2  C2  LG1 d5015      42.976   9.813  59.967  0.00  0.00    -0.033 A 
ATOM      3  C3  LG1 d5015      43.219   8.484  60.316  0.00  0.00     0.028 A 
ATOM      4  C4  LG1 d5015      42.547   7.456  59.656  0.00  0.00     0.012 A 
ATOM      5  C5  LG1 d5015      41.630   7.756  58.647  0.00  0.00     0.028 A 
ATOM      6  C6  LG1 d5015      41.388   9.084  58.299  0.00  0.00    -0.033 A 
ATOM      7  C7  LG1 d5015      40.401   9.373  57.214  0.00  0.00     0.050 C 
ATOM      8 BR1  LG1 d5015      42.876   5.656  60.131  0.00  0.00    -0.051 Br
ATOM      9  C8  LG1 d5015      43.713  10.894  60.690  0.00  0.00     0.050 C 
ENDROOT
BRANCH   1  10
ATOM     10  N1  LG1 d5015      41.812  11.480  58.597  0.00  0.00    -0.265 N 
ATOM     11  C11 LG1 d5015      42.569  12.195  57.669  0.00  0.00     0.148 C 
ATOM     12  S2  LG1 d5015      43.744  11.671  56.595  0.00  0.00    -0.052 SA
ATOM     13  S1  LG1 d5015      42.046  13.875  57.659  0.00  0.00    -0.090 SA
ATOM     14  C10 LG1 d5015      40.605  13.562  58.678  0.00  0.00     0.185 C 
ATOM     15  C9  LG1 d5015      40.757  12.167  59.214  0.00  0.00     0.239 C 
ATOM     16  O1  LG1 d5015      40.015  11.755  60.103  0.00  0.00    -0.272 OA
ENDBRANCH   1  10
TORSDOF 1
ENDMDL
MODEL 3
REMARK VINA RESULT:    -5.041      1.627      2.101
REMARK INTER + INTRA:          -5.540
REMARK INTER:                  -5.373
REMARK INTRA:                  -0.167
REMARK UNBOUND:                -0.205
REMARK  1 active torsions:
REMARK  status: ('A' for Active; 'I' for Inactive)
REMARK    1  A    between atoms: C1_1  and  N1_10 
ROOT
ATOM      1  C1  LG1 d5015      42.126  10.132  58.936  0.00  0.00     0.056 A 
ATOM      2  C2  LG1 d5015      41.463   9.110  58.259  0.00  0.00    -0.033 A 
ATOM      3  C3  LG1 d5015      41.668   7.780  58.630  0.00  0.00     0.028 A 
ATOM      4  C4  LG1 d5015      42.535   7.474  59.678  0.00  0.00     0.012 A 
ATOM      5  C5  LG1 d5015      43.200   8.499  60.355  0.00  0.00     0.028 A 
ATOM      6  C6  LG1 d5015      42.995   9.826  59.984  0.00  0.00    -0.033 A 
ATOM      7  C7  LG1 d5015      43.720  10.901  60.728  0.00  0.00     0.050 C 
ATOM      8 BR1  LG1 d5015      42.815   5.673  60.179  0.00  0.00    -0.051 Br
ATOM      9  C8  LG1 d5015      40.525   9.406  57.134  0.00  0.00     0.050 C 
ENDROOT
BRANCH   1  10
ATOM     10  N1  LG1 d5015      41.914  11.500  58.556  0.00  0.00    -0.265 N 
ATOM     11  C11 LG1 d5015      40.840  12.277  58.992  0.00  0.00     0.148 C 
ATOM     12  S2  LG1 d5015      39.698  11.976  60.182  0.00  0.00    -0.052 SA
ATOM     13  S1  LG1 d5015      40.858  13.823  58.152  0.00  0.00    -0.090 SA
ATOM     14  C10 LG1 d5015      42.478  13.555  57.435  0.00  0.00     0.185 C 
ATOM     15  C9  LG1 d5015      42.819  12.113  57.678  0.00  0.00     0.239 C 
ATOM     16  O1  LG1 d5015      43.786  11.597  57.122  0.00  0.00    -0.272 OA
ENDBRANCH   1  10
TORSDOF 1
ENDMDL
MODEL 4
REMARK VINA RESULT:    -5.026      1.627      3.008
REMARK INTER + INTRA:          -5.525
REMARK INTER:                  -5.364
REMARK INTRA:                  -0.160
REMARK UNBOUND:                -0.205
REMARK  1 active torsions:
REMARK  status: ('A' for Active; 'I' for Inactive)
REMARK    1  A    between atoms: C1_1  and  N1_10 
ROOT
ATOM      1  C1  LG1 d5015      42.133  10.140  58.915  0.00  0.00     0.056 A 
ATOM      2  C2  LG1 d5015      42.997   9.840  59.967  0.00  0.00    -0.033 A 
ATOM      3  C3  LG1 d5015      43.201   8.512  60.345  0.00  0.00     0.028 A 
ATOM      4  C4  LG1 d5015      42.542   7.486  59.670  0.00  0.00     0.012 A 
ATOM      5  C5  LG1 d5015      41.676   7.787  58.616  0.00  0.00     0.028 A 
ATOM      6  C6  LG1 d5015      41.473   9.113  58.240  0.00  0.00    -0.033 A 
ATOM      7  C7  LG1 d5015      40.541   9.404  57.108  0.00  0.00     0.050 C 
ATOM      8 BR1  LG1 d5015      42.818   5.687  60.182  0.00  0.00    -0.051 Br
ATOM      9  C8  LG1 d5015      43.719  10.918  60.709  0.00  0.00     0.050 C 
ENDROOT
BRANCH   1  10
ATOM     10  N1  LG1 d5015      41.924  11.506  58.525  0.00  0.00    -0.265 N 
ATOM     11  C11 LG1 d5015      40.847  12.284  58.949  0.00  0.00     0.148 C 
ATOM     12  S2  LG1 d5015      39.695  11.990  60.131  0.00  0.00    -0.052 SA
ATOM     13  S1  LG1 d5015      40.870  13.826  58.100  0.00  0.00    -0.090 SA
ATOM     14  C10 LG1 d5015      42.496  13.555  57.397  0.00  0.00     0.185 C 
ATOM     15  C9  LG1 d5015      42.836  12.115  57.651  0.00  0.00     0.239 C 
ATOM     16  O1  LG1 d5015      43.807  11.596  57.105  0.00  0.00    -0.272 OA
ENDBRANCH   1  10
TORSDOF 1
ENDMDL
MODEL 5
REMARK VINA RESULT:    -4.958      3.120      4.639
REMARK INTER + INTRA:          -5.452
REMARK INTER:                  -5.247
REMARK INTRA:                  -0.205
REMARK UNBOUND:                -0.205
REMARK  1 active torsions:
REMARK  status: ('A' for Active; 'I' for Inactive)
REMARK    1  A    between atoms: C1_1  and  N1_10 
ROOT
ATOM      1  C1  LG1 d5015      41.669  12.383  58.231  0.00  0.00     0.056 A 
ATOM      2  C2  LG1 d5015      41.368  11.407  59.180  0.00  0.00    -0.033 A 
ATOM      3  C3  LG1 d5015      40.198  11.507  59.934  0.00  0.00     0.028 A 
ATOM      4  C4  LG1 d5015      39.331  12.581  59.739  0.00  0.00     0.012 A 
ATOM      5  C5  LG1 d5015      39.633  13.558  58.789  0.00  0.00     0.028 A 
ATOM      6  C6  LG1 d5015      40.802  13.458  58.036  0.00  0.00    -0.033 A 
ATOM      7  C7  LG1 d5015      41.099  14.519  57.026  0.00  0.00     0.050 C 
ATOM      8 BR1  LG1 d5015      37.747  12.716  60.762  0.00  0.00    -0.051 Br
ATOM      9  C8  LG1 d5015      42.276  10.243  59.411  0.00  0.00     0.050 C 
ENDROOT
BRANCH   1  10
ATOM     10  N1  LG1 d5015      42.872  12.280  57.453  0.00  0.00    -0.265 N 
ATOM     11  C11 LG1 d5015      44.083  12.876  57.804  0.00  0.00     0.148 C 
ATOM     12  S2  LG1 d5015      44.552  13.622  59.230  0.00  0.00    -0.052 SA
ATOM     13  S1  LG1 d5015      45.242  12.658  56.498  0.00  0.00    -0.090 SA
ATOM     14  C10 LG1 d5015      44.203  11.505  55.603  0.00  0.00     0.185 C 
ATOM     15  C9  LG1 d5015      42.850  11.556  56.254  0.00  0.00     0.239 C 
ATOM     16  O1  LG1 d5015      41.881  11.016  55.725  0.00  0.00    -0.272 OA
ENDBRANCH   1  10
TORSDOF 1
ENDMDL
