REMARK INTER + INTRA:          -5.631
REMARK INTER:                  -5.428
REMARK INTRA:                  -0.203
REMARK UNBOUND:                -0.201
REMARK  1 active torsions:
REMARK  status: ('A' for Active; 'I' for Inactive)
REMARK    1  A    between atoms: C1_1  and  N1_10 
ROOT
ATOM      1  C1  LG1 d5015      42.058  10.099  58.959  0.00  0.00     0.056 A 
ATOM      2  C2  LG1 d5015      42.952   9.782  59.981  0.00  0.00    -0.033 A 
ATOM      3  C3  LG1 d5015      43.184   8.447  60.315  0.00  0.00     0.028 A 
ATOM      4  C4  LG1 d5015      42.523   7.431  59.626  0.00  0.00     0.012 A 
ATOM      5  C5  LG1 d5015      41.627   7.749  58.604  0.00  0.00     0.028 A 
ATOM      6  C6  LG1 d5015      41.395   9.082  58.271  0.00  0.00    -0.033 A 
ATOM      7  C7  LG1 d5015      40.431   9.392  57.172  0.00  0.00     0.050 C 
ATOM      8 BR1  LG1 d5015      42.836   5.622  60.080  0.00  0.00    -0.051 Br
ATOM      9  C8  LG1 d5015      43.677  10.849  60.735  0.00  0.00     0.050 C 
ENDROOT
BRANCH   1  10
ATOM     10  N1  LG1 d5015      41.820  11.472  58.614  0.00  0.00    -0.265 N 
ATOM     11  C11 LG1 d5015      42.597  12.199  57.712  0.00  0.00     0.148 C 
ATOM     12  S2  LG1 d5015      43.789  11.687  56.651  0.00  0.00    -0.052 SA
ATOM     13  S1  LG1 d5015      42.079  13.880  57.716  0.00  0.00    -0.090 SA
ATOM     14  C10 LG1 d5015      40.618  13.557  58.703  0.00  0.00     0.185 C 
ATOM     15  C9  LG1 d5015      40.756  12.154  59.221  0.00  0.00     0.239 C 
ATOM     16  O1  LG1 d5015      39.997  11.731  60.090  0.00  0.00    -0.272 OA
ENDBRANCH   1  10
TORSDOF 1
ENDMDL
