REMARK INTER + INTRA:          -6.752
REMARK INTER:                  -6.587
REMARK INTRA:                  -0.165
REMARK UNBOUND:                -0.100
REMARK  1 active torsions:
REMARK  status: ('A' for Active; 'I' for Inactive)
REMARK    1  A    between atoms: C10_13  and  C11_14 
ROOT
ATOM      1  C1  LG1 d5015      40.170  12.804  59.120  0.00  0.00     0.018 C 
ATOM      2  C2  LG1 d5015      41.136  13.379  58.151  0.00  0.00     0.193 C 
ATOM      3  C3  LG1 d5015      41.829  12.380  57.311  0.00  0.00     0.049 A 
ATOM      4  C4  LG1 d5015      42.843  12.780  56.438  0.00  0.00     0.037 A 
ATOM      5  C5  LG1 d5015      43.450  11.840  55.605  0.00  0.00     0.012 A 
ATOM      6  C6  LG1 d5015      43.040  10.506  55.635  0.00  0.00     0.022 A 
ATOM      7  C7  LG1 d5015      42.024  10.107  56.504  0.00  0.00     0.039 A 
ATOM      8  C8  LG1 d5015      41.429  11.038  57.355  0.00  0.00     0.083 A 
ATOM      9  O1  LG1 d5015      40.427  10.582  58.170  0.00  0.00    -0.346 OA
ATOM     10  C9  LG1 d5015      40.296  11.338  59.379  0.00  0.00     0.218 C 
ATOM     11 BR1  LG1 d5015      44.845  12.370  54.443  0.00  0.00    -0.051 Br
ATOM     12  O2  LG1 d5015      41.356  14.577  58.042  0.00  0.00    -0.287 OA
ATOM     13  C10 LG1 d5015      39.265  13.603  59.699  0.00  0.00     0.025 C 
ENDROOT
BRANCH  13  14
ATOM     14  C11 LG1 d5015      38.283  13.166  60.646  0.00  0.00    -0.029 A 
ATOM     15  C14 LG1 d5015      38.458  13.274  62.007  0.00  0.00     0.061 A 
ATOM     16  S1  LG1 d5015      37.113  12.670  62.877  0.00  0.00    -0.113 SA
ATOM     17  C13 LG1 d5015      36.292  12.261  61.432  0.00  0.00     0.050 A 
ATOM     18  C12 LG1 d5015      37.028  12.579  60.312  0.00  0.00     0.019 A 
ENDBRANCH  13  14
TORSDOF 1
ENDMDL
