REMARK INTER + INTRA:          -6.048
REMARK INTER:                  -5.881
REMARK INTRA:                  -0.168
REMARK UNBOUND:                -0.130
REMARK  1 active torsions:
REMARK  status: ('A' for Active; 'I' for Inactive)
REMARK    1  A    between atoms: C10_13  and  C11_14 
ROOT
ATOM      1  C1  LG1 d5015      41.282  10.351  58.914  0.00  0.00     0.018 C 
ATOM      2  C2  LG1 d5015      41.583   9.129  58.127  0.00  0.00     0.193 C 
ATOM      3  C3  LG1 d5015      42.698   8.317  58.658  0.00  0.00     0.049 A 
ATOM      4  C4  LG1 d5015      43.154   7.204  57.950  0.00  0.00     0.037 A 
ATOM      5  C5  LG1 d5015      44.167   6.409  58.488  0.00  0.00     0.012 A 
ATOM      6  C6  LG1 d5015      44.716   6.717  59.733  0.00  0.00     0.022 A 
ATOM      7  C7  LG1 d5015      44.257   7.828  60.443  0.00  0.00     0.039 A 
ATOM      8  C8  LG1 d5015      43.260   8.639  59.900  0.00  0.00     0.083 A 
ATOM      9  O1  LG1 d5015      42.845   9.702  60.657  0.00  0.00    -0.346 OA
ATOM     10  C9  LG1 d5015      42.340  10.789  59.873  0.00  0.00     0.218 C 
ATOM     11 BR1  LG1 d5015      44.810   4.917  57.519  0.00  0.00    -0.051 Br
ATOM     12  O2  LG1 d5015      40.972   8.803  57.119  0.00  0.00    -0.287 OA
ATOM     13  C10 LG1 d5015      40.117  10.983  58.726  0.00  0.00     0.025 C 
ENDROOT
BRANCH  13  14
ATOM     14  C11 LG1 d5015      39.714  12.167  59.424  0.00  0.00    -0.029 A 
ATOM     15  C14 LG1 d5015      39.026  12.134  60.616  0.00  0.00     0.061 A 
ATOM     16  S1  LG1 d5015      38.687  13.706  61.205  0.00  0.00    -0.113 SA
ATOM     17  C13 LG1 d5015      39.460  14.435  59.864  0.00  0.00     0.050 A 
ATOM     18  C12 LG1 d5015      39.966  13.500  58.988  0.00  0.00     0.019 A 
ENDBRANCH  13  14
TORSDOF 1
ENDMDL
