REMARK INTER + INTRA:          -6.899
REMARK INTER:                  -7.018
REMARK INTRA:                   0.119
REMARK UNBOUND:                -0.100
REMARK  1 active torsions:
REMARK  status: ('A' for Active; 'I' for Inactive)
REMARK    1  A    between atoms: C10_13  and  C11_14 
ROOT
ATOM      1  C1  LG1 d5015      39.642  12.443  59.672  0.00  0.00     0.018 C 
ATOM      2  C2  LG1 d5015      40.642  11.632  58.933  0.00  0.00     0.193 C 
ATOM      3  C3  LG1 d5015      41.440  12.392  57.949  0.00  0.00     0.049 A 
ATOM      4  C4  LG1 d5015      42.336  11.727  57.110  0.00  0.00     0.037 A 
ATOM      5  C5  LG1 d5015      43.129  12.459  56.225  0.00  0.00     0.012 A 
ATOM      6  C6  LG1 d5015      43.037  13.851  56.185  0.00  0.00     0.022 A 
ATOM      7  C7  LG1 d5015      42.143  14.515  57.026  0.00  0.00     0.039 A 
ATOM      8  C8  LG1 d5015      41.332  13.787  57.897  0.00  0.00     0.083 A 
ATOM      9  O1  LG1 d5015      40.491  14.504  58.706  0.00  0.00    -0.346 OA
ATOM     10  C9  LG1 d5015      39.317  13.777  59.083  0.00  0.00     0.218 C 
ATOM     11 BR1  LG1 d5015      44.323  11.561  55.064  0.00  0.00    -0.051 Br
ATOM     12  O2  LG1 d5015      40.806  10.433  59.109  0.00  0.00    -0.287 OA
ATOM     13  C10 LG1 d5015      39.094  11.952  60.790  0.00  0.00     0.025 C 
ENDROOT
BRANCH  13  14
ATOM     14  C11 LG1 d5015      38.122  12.637  61.588  0.00  0.00    -0.029 A 
ATOM     15  C14 LG1 d5015      36.919  12.074  61.949  0.00  0.00     0.061 A 
ATOM     16  S1  LG1 d5015      35.974  13.135  62.903  0.00  0.00    -0.113 SA
ATOM     17  C13 LG1 d5015      37.172  14.354  62.833  0.00  0.00     0.050 A 
ATOM     18  C12 LG1 d5015      38.269  13.960  62.100  0.00  0.00     0.019 A 
ENDBRANCH  13  14
TORSDOF 1
ENDMDL
