REMARK INTER + INTRA:          -6.038
REMARK INTER:                  -5.871
REMARK INTRA:                  -0.167
REMARK UNBOUND:                -0.100
REMARK  1 active torsions:
REMARK  status: ('A' for Active; 'I' for Inactive)
REMARK    1  A    between atoms: C10_13  and  C11_14 
ROOT
ATOM      1  C1  LG1 d5015      41.213  10.491  58.958  0.00  0.00     0.018 C 
ATOM      2  C2  LG1 d5015      41.507   9.287  58.141  0.00  0.00     0.193 C 
ATOM      3  C3  LG1 d5015      42.646   8.480  58.628  0.00  0.00     0.049 A 
ATOM      4  C4  LG1 d5015      43.095   7.385  57.887  0.00  0.00     0.037 A 
ATOM      5  C5  LG1 d5015      44.131   6.593  58.383  0.00  0.00     0.012 A 
ATOM      6  C6  LG1 d5015      44.710   6.885  59.619  0.00  0.00     0.022 A 
ATOM      7  C7  LG1 d5015      44.258   7.978  60.360  0.00  0.00     0.039 A 
ATOM      8  C8  LG1 d5015      43.237   8.786  59.859  0.00  0.00     0.083 A 
ATOM      9  O1  LG1 d5015      42.830   9.831  60.646  0.00  0.00    -0.346 OA
ATOM     10  C9  LG1 d5015      42.291  10.925  59.897  0.00  0.00     0.218 C 
ATOM     11 BR1  LG1 d5015      44.766   5.127  57.370  0.00  0.00    -0.051 Br
ATOM     12  O2  LG1 d5015      40.872   8.972  57.145  0.00  0.00    -0.287 OA
ATOM     13  C10 LG1 d5015      40.036  11.112  58.813  0.00  0.00     0.025 C 
ENDROOT
BRANCH  13  14
ATOM     14  C11 LG1 d5015      39.638  12.278  59.543  0.00  0.00    -0.029 A 
ATOM     15  C14 LG1 d5015      38.987  12.216  60.755  0.00  0.00     0.061 A 
ATOM     16  S1  LG1 d5015      38.645  13.771  61.380  0.00  0.00    -0.113 SA
ATOM     17  C13 LG1 d5015      39.367  14.534  60.030  0.00  0.00     0.050 A 
ATOM     18  C12 LG1 d5015      39.858  13.622  59.123  0.00  0.00     0.019 A 
ENDBRANCH  13  14
TORSDOF 1
ENDMDL
