REMARK INTER + INTRA:          -5.536
REMARK INTER:                  -5.437
REMARK INTRA:                  -0.100
REMARK UNBOUND:                -0.100
REMARK  1 active torsions:
REMARK  status: ('A' for Active; 'I' for Inactive)
REMARK    1  A    between atoms: C10_13  and  C11_14 
ROOT
ATOM      1  C1  LG1 d5015      42.864   8.087  59.625  0.00  0.00     0.018 C 
ATOM      2  C2  LG1 d5015      41.940   9.025  58.940  0.00  0.00     0.193 C 
ATOM      3  C3  LG1 d5015      42.378  10.437  58.956  0.00  0.00     0.049 A 
ATOM      4  C4  LG1 d5015      41.544  11.434  58.445  0.00  0.00     0.037 A 
ATOM      5  C5  LG1 d5015      41.990  12.756  58.409  0.00  0.00     0.012 A 
ATOM      6  C6  LG1 d5015      43.265  13.081  58.872  0.00  0.00     0.022 A 
ATOM      7  C7  LG1 d5015      44.099  12.083  59.379  0.00  0.00     0.039 A 
ATOM      8  C8  LG1 d5015      43.651  10.764  59.438  0.00  0.00     0.083 A 
ATOM      9  O1  LG1 d5015      44.526   9.832  59.931  0.00  0.00    -0.346 OA
ATOM     10  C9  LG1 d5015      43.875   8.709  60.533  0.00  0.00     0.218 C 
ATOM     11 BR1  LG1 d5015      40.855  14.116  57.747  0.00  0.00    -0.051 Br
ATOM     12  O2  LG1 d5015      40.898   8.679  58.402  0.00  0.00    -0.287 OA
ATOM     13  C10 LG1 d5015      42.747   6.772  59.405  0.00  0.00     0.025 C 
ENDROOT
BRANCH  13  14
ATOM     14  C11 LG1 d5015      43.578   5.771  60.005  0.00  0.00    -0.029 A 
ATOM     15  C14 LG1 d5015      44.573   5.115  59.316  0.00  0.00     0.061 A 
ATOM     16  S1  LG1 d5015      45.393   3.979  60.300  0.00  0.00    -0.113 SA
ATOM     17  C13 LG1 d5015      44.417   4.362  61.652  0.00  0.00     0.050 A 
ATOM     18  C12 LG1 d5015      43.488   5.335  61.359  0.00  0.00     0.019 A 
ENDBRANCH  13  14
TORSDOF 1
ENDMDL
