REMARK INTER + INTRA:          -6.766
REMARK INTER:                  -6.603
REMARK INTRA:                  -0.163
REMARK UNBOUND:                -0.132
REMARK  1 active torsions:
REMARK  status: ('A' for Active; 'I' for Inactive)
REMARK    1  A    between atoms: C10_13  and  C11_14 
ROOT
ATOM      1  C1  LG1 d5015      40.190  12.783  59.117  0.00  0.00     0.018 C 
ATOM      2  C2  LG1 d5015      41.175  13.368  58.172  0.00  0.00     0.193 C 
ATOM      3  C3  LG1 d5015      41.871  12.379  57.323  0.00  0.00     0.049 A 
ATOM      4  C4  LG1 d5015      42.901  12.787  56.473  0.00  0.00     0.037 A 
ATOM      5  C5  LG1 d5015      43.512  11.857  55.631  0.00  0.00     0.012 A 
ATOM      6  C6  LG1 d5015      43.092  10.526  55.630  0.00  0.00     0.022 A 
ATOM      7  C7  LG1 d5015      42.060  10.120  56.478  0.00  0.00     0.039 A 
ATOM      8  C8  LG1 d5015      41.461  11.040  57.337  0.00  0.00     0.083 A 
ATOM      9  O1  LG1 d5015      40.444  10.578  58.130  0.00  0.00    -0.346 OA
ATOM     10  C9  LG1 d5015      40.302  11.312  59.351  0.00  0.00     0.218 C 
ATOM     11 BR1  LG1 d5015      44.927  12.397  54.498  0.00  0.00    -0.051 Br
ATOM     12  O2  LG1 d5015      41.405  14.566  58.088  0.00  0.00    -0.287 OA
ATOM     13  C10 LG1 d5015      39.284  13.579  59.698  0.00  0.00     0.025 C 
ENDROOT
BRANCH  13  14
ATOM     14  C11 LG1 d5015      38.286  13.133  60.623  0.00  0.00    -0.029 A 
ATOM     15  C14 LG1 d5015      38.437  13.226  61.988  0.00  0.00     0.061 A 
ATOM     16  S1  LG1 d5015      37.077  12.614  62.828  0.00  0.00    -0.113 SA
ATOM     17  C13 LG1 d5015      36.281  12.221  61.364  0.00  0.00     0.050 A 
ATOM     18  C12 LG1 d5015      37.036  12.551  60.261  0.00  0.00     0.019 A 
ENDBRANCH  13  14
TORSDOF 1
ENDMDL
