REMARK INTER + INTRA:          -5.582
REMARK INTER:                  -5.450
REMARK INTRA:                  -0.132
REMARK UNBOUND:                -0.132
REMARK  1 active torsions:
REMARK  status: ('A' for Active; 'I' for Inactive)
REMARK    1  A    between atoms: C10_13  and  C11_14 
ROOT
ATOM      1  C1  LG1 d5015      42.949   8.043  59.667  0.00  0.00     0.018 C 
ATOM      2  C2  LG1 d5015      42.026   8.975  58.972  0.00  0.00     0.193 C 
ATOM      3  C3  LG1 d5015      42.469  10.385  58.968  0.00  0.00     0.049 A 
ATOM      4  C4  LG1 d5015      41.638  11.379  58.446  0.00  0.00     0.037 A 
ATOM      5  C5  LG1 d5015      42.089  12.698  58.391  0.00  0.00     0.012 A 
ATOM      6  C6  LG1 d5015      43.367  13.025  58.846  0.00  0.00     0.022 A 
ATOM      7  C7  LG1 d5015      44.198  12.030  59.365  0.00  0.00     0.039 A 
ATOM      8  C8  LG1 d5015      43.745  10.714  59.442  0.00  0.00     0.083 A 
ATOM      9  O1  LG1 d5015      44.618   9.786  59.946  0.00  0.00    -0.346 OA
ATOM     10  C9  LG1 d5015      43.964   8.673  60.564  0.00  0.00     0.218 C 
ATOM     11 BR1  LG1 d5015      40.957  14.054  57.713  0.00  0.00    -0.051 Br
ATOM     12  O2  LG1 d5015      40.982   8.626  58.441  0.00  0.00    -0.287 OA
ATOM     13  C10 LG1 d5015      42.826   6.725  59.465  0.00  0.00     0.025 C 
ENDROOT
BRANCH  13  14
ATOM     14  C11 LG1 d5015      43.655   5.729  60.076  0.00  0.00    -0.029 A 
ATOM     15  C14 LG1 d5015      44.702   5.122  59.420  0.00  0.00     0.061 A 
ATOM     16  S1  LG1 d5015      45.504   3.979  60.409  0.00  0.00    -0.113 SA
ATOM     17  C13 LG1 d5015      44.451   4.294  61.722  0.00  0.00     0.050 A 
ATOM     18  C12 LG1 d5015      43.510   5.250  61.411  0.00  0.00     0.019 A 
ENDBRANCH  13  14
TORSDOF 1
ENDMDL
