REMARK INTER + INTRA:          -5.520
REMARK INTER:                  -5.348
REMARK INTRA:                  -0.172
REMARK UNBOUND:                -0.176
REMARK  1 active torsions:
REMARK  status: ('A' for Active; 'I' for Inactive)
REMARK    1  A    between atoms: C1_1  and  N1_10 
ROOT
ATOM      1  C1  LG1 d5015      42.105  10.142  58.869  0.00  0.00     0.056 A 
ATOM      2  C2  LG1 d5015      42.963   9.829  59.923  0.00  0.00    -0.033 A 
ATOM      3  C3  LG1 d5015      43.157   8.497  60.292  0.00  0.00     0.028 A 
ATOM      4  C4  LG1 d5015      42.493   7.480  59.608  0.00  0.00     0.012 A 
ATOM      5  C5  LG1 d5015      41.633   7.794  58.553  0.00  0.00     0.028 A 
ATOM      6  C6  LG1 d5015      41.440   9.124  58.185  0.00  0.00    -0.033 A 
ATOM      7  C7  LG1 d5015      40.514   9.429  57.052  0.00  0.00     0.050 C 
ATOM      8 BR1  LG1 d5015      42.754   5.676  60.109  0.00  0.00    -0.051 Br
ATOM      9  C8  LG1 d5015      43.690  10.897  60.674  0.00  0.00     0.050 C 
ENDROOT
BRANCH   1  10
ATOM     10  N1  LG1 d5015      41.907  11.512  58.488  0.00  0.00    -0.265 N 
ATOM     11  C11 LG1 d5015      40.838  12.297  58.921  0.00  0.00     0.148 C 
ATOM     12  S2  LG1 d5015      39.689  12.006  60.105  0.00  0.00    -0.052 SA
ATOM     13  S1  LG1 d5015      40.872  13.843  58.080  0.00  0.00    -0.090 SA
ATOM     14  C10 LG1 d5015      42.493  13.562  57.370  0.00  0.00     0.185 C 
ATOM     15  C9  LG1 d5015      42.821  12.117  57.614  0.00  0.00     0.239 C 
ATOM     16  O1  LG1 d5015      43.784  11.593  57.062  0.00  0.00    -0.272 OA
ENDBRANCH   1  10
TORSDOF 1
ENDMDL
