REMARK INTER + INTRA:          -6.080
REMARK INTER:                  -5.911
REMARK INTRA:                  -0.168
REMARK UNBOUND:                -0.168
REMARK  1 active torsions:
REMARK  status: ('A' for Active; 'I' for Inactive)
REMARK    1  A    between atoms: C10_13  and  C11_14 
ROOT
ATOM      1  C1  LG1 d5015      41.251  10.419  58.949  0.00  0.00     0.018 C 
ATOM      2  C2  LG1 d5015      41.540   9.198  58.157  0.00  0.00     0.193 C 
ATOM      3  C3  LG1 d5015      42.661   8.385  58.673  0.00  0.00     0.049 A 
ATOM      4  C4  LG1 d5015      43.106   7.271  57.956  0.00  0.00     0.037 A 
ATOM      5  C5  LG1 d5015      44.125   6.475  58.480  0.00  0.00     0.012 A 
ATOM      6  C6  LG1 d5015      44.692   6.780  59.718  0.00  0.00     0.022 A 
ATOM      7  C7  LG1 d5015      44.244   7.891  60.435  0.00  0.00     0.039 A 
ATOM      8  C8  LG1 d5015      43.241   8.704  59.906  0.00  0.00     0.083 A 
ATOM      9  O1  LG1 d5015      42.837   9.767  60.670  0.00  0.00    -0.346 OA
ATOM     10  C9  LG1 d5015      42.323  10.855  59.895  0.00  0.00     0.218 C 
ATOM     11 BR1  LG1 d5015      44.754   4.983  57.501  0.00  0.00    -0.051 Br
ATOM     12  O2  LG1 d5015      40.915   8.874  57.158  0.00  0.00    -0.287 OA
ATOM     13  C10 LG1 d5015      40.085  11.053  58.779  0.00  0.00     0.025 C 
ENDROOT
BRANCH  13  14
ATOM     14  C11 LG1 d5015      39.692  12.237  59.483  0.00  0.00    -0.029 A 
ATOM     15  C14 LG1 d5015      39.009  12.203  60.677  0.00  0.00     0.061 A 
ATOM     16  S1  LG1 d5015      38.682  13.774  61.275  0.00  0.00    -0.113 SA
ATOM     17  C13 LG1 d5015      39.457  14.505  59.935  0.00  0.00     0.050 A 
ATOM     18  C12 LG1 d5015      39.953  13.570  59.053  0.00  0.00     0.019 A 
ENDBRANCH  13  14
TORSDOF 1
ENDMDL
