REMARK INTER + INTRA:          -6.045
REMARK INTER:                  -5.879
REMARK INTRA:                  -0.167
REMARK UNBOUND:                -0.165
REMARK  1 active torsions:
REMARK  status: ('A' for Active; 'I' for Inactive)
REMARK    1  A    between atoms: C10_13  and  C11_14 
ROOT
ATOM      1  C1  LG1 d5015      41.201  10.496  58.947  0.00  0.00     0.018 C 
ATOM      2  C2  LG1 d5015      41.503   9.298  58.124  0.00  0.00     0.193 C 
ATOM      3  C3  LG1 d5015      42.631   8.482  58.621  0.00  0.00     0.049 A 
ATOM      4  C4  LG1 d5015      43.088   7.393  57.877  0.00  0.00     0.037 A 
ATOM      5  C5  LG1 d5015      44.113   6.592  58.382  0.00  0.00     0.012 A 
ATOM      6  C6  LG1 d5015      44.673   6.870  59.629  0.00  0.00     0.022 A 
ATOM      7  C7  LG1 d5015      44.213   7.957  60.374  0.00  0.00     0.039 A 
ATOM      8  C8  LG1 d5015      43.204   8.774  59.864  0.00  0.00     0.083 A 
ATOM      9  O1  LG1 d5015      42.789   9.813  60.655  0.00  0.00    -0.346 OA
ATOM     10  C9  LG1 d5015      42.266  10.916  59.907  0.00  0.00     0.218 C 
ATOM     11 BR1  LG1 d5015      44.758   5.133  57.366  0.00  0.00    -0.051 Br
ATOM     12  O2  LG1 d5015      40.883   8.995  57.115  0.00  0.00    -0.287 OA
ATOM     13  C10 LG1 d5015      40.029  11.123  58.790  0.00  0.00     0.025 C 
ENDROOT
BRANCH  13  14
ATOM     14  C11 LG1 d5015      39.623  12.283  59.525  0.00  0.00    -0.029 A 
ATOM     15  C14 LG1 d5015      38.958  12.212  60.727  0.00  0.00     0.061 A 
ATOM     16  S1  LG1 d5015      38.611  13.764  61.362  0.00  0.00    -0.113 SA
ATOM     17  C13 LG1 d5015      39.351  14.537  60.027  0.00  0.00     0.050 A 
ATOM     18  C12 LG1 d5015      39.852  13.630  59.118  0.00  0.00     0.019 A 
ENDBRANCH  13  14
TORSDOF 1
ENDMDL
