REMARK INTER + INTRA:          -5.643
REMARK INTER:                  -5.481
REMARK INTRA:                  -0.163
REMARK UNBOUND:                -0.130
REMARK  1 active torsions:
REMARK  status: ('A' for Active; 'I' for Inactive)
REMARK    1  A    between atoms: C10_13  and  C11_14 
ROOT
ATOM      1  C1  LG1 d5015      43.769   8.274  59.824  0.00  0.00     0.018 C 
ATOM      2  C2  LG1 d5015      43.729   9.754  59.926  0.00  0.00     0.193 C 
ATOM      3  C3  LG1 d5015      42.587  10.385  59.231  0.00  0.00     0.049 A 
ATOM      4  C4  LG1 d5015      42.496  11.777  59.156  0.00  0.00     0.037 A 
ATOM      5  C5  LG1 d5015      41.384  12.364  58.551  0.00  0.00     0.012 A 
ATOM      6  C6  LG1 d5015      40.363  11.568  58.032  0.00  0.00     0.022 A 
ATOM      7  C7  LG1 d5015      40.453  10.178  58.111  0.00  0.00     0.039 A 
ATOM      8  C8  LG1 d5015      41.572   9.584  58.695  0.00  0.00     0.083 A 
ATOM      9  O1  LG1 d5015      41.589   8.215  58.754  0.00  0.00    -0.346 OA
ATOM     10  C9  LG1 d5015      42.911   7.667  58.762  0.00  0.00     0.218 C 
ATOM     11 BR1  LG1 d5015      41.268  14.248  58.418  0.00  0.00    -0.051 Br
ATOM     12  O2  LG1 d5015      44.562  10.415  60.529  0.00  0.00    -0.287 OA
ATOM     13  C10 LG1 d5015      44.551   7.578  60.659  0.00  0.00     0.025 C 
ENDROOT
BRANCH  13  14
ATOM     14  C11 LG1 d5015      44.672   6.152  60.659  0.00  0.00    -0.029 A 
ATOM     15  C14 LG1 d5015      45.586   5.479  59.878  0.00  0.00     0.061 A 
ATOM     16  S1  LG1 d5015      45.492   3.784  60.097  0.00  0.00    -0.113 SA
ATOM     17  C13 LG1 d5015      44.228   3.945  61.239  0.00  0.00     0.050 A 
ATOM     18  C12 LG1 d5015      43.886   5.263  61.448  0.00  0.00     0.019 A 
ENDBRANCH  13  14
TORSDOF 1
ENDMDL
