REMARK INTER + INTRA:          -7.713
REMARK INTER:                  -7.174
REMARK INTRA:                  -0.539
REMARK UNBOUND:                -0.546
REMARK  2 active torsions:
REMARK  status: ('A' for Active; 'I' for Inactive)
REMARK    1  A    between atoms: C1_1  and  N1_15 
REMARK    2  A    between atoms: C7_9  and  C4_4 
ROOT
ATOM      1  C1  LG1 d5015      41.439  13.776  58.009  0.00  0.00     0.141 A 
ATOM      2  C2  LG1 d5015      40.904  12.489  57.940  0.00  0.00     0.187 A 
ATOM      3  C3  LG1 d5015      39.833  12.135  58.761  0.00  0.00     0.175 A 
ATOM      4  C4  LG1 d5015      39.298  13.066  59.651  0.00  0.00     0.131 A 
ATOM      5  C5  LG1 d5015      39.834  14.352  59.720  0.00  0.00     0.175 A 
ATOM      6  C6  LG1 d5015      40.903  14.706  58.899  0.00  0.00     0.187 A 
ATOM      7  F1  LG1 d5015      41.408  15.946  58.977  0.00  0.00    -0.200 F 
ATOM      8  F2  LG1 d5015      39.325  15.253  60.573  0.00  0.00    -0.202 F 
ATOM      9  F6  LG1 d5015      39.325  10.895  58.686  0.00  0.00    -0.202 F 
ATOM     10  F7  LG1 d5015      41.408  11.584  57.089  0.00  0.00    -0.200 F 
ENDROOT
BRANCH   1  11
ATOM     11  N1  LG1 d5015      42.501  14.128  57.196  0.00  0.00    -0.232 N 
ATOM     12  N2  LG1 d5015      42.270  14.542  55.938  0.00  0.00    -0.172 NA
ATOM     13  C10 LG1 d5015      43.497  14.786  55.470  0.00  0.00     0.053 A 
ATOM     14  C9  LG1 d5015      44.503  14.530  56.421  0.00  0.00     0.055 A 
ATOM     15  C11 LG1 d5015      43.670  15.272  54.090  0.00  0.00     0.072 C 
ATOM     16  C8  LG1 d5015      43.822  14.102  57.534  0.00  0.00     0.035 A 
ATOM     17  C12 LG1 d5015      44.317  13.685  58.860  0.00  0.00     0.070 C 
ENDBRANCH   1  11
BRANCH   4  18
ATOM     18  C7  LG1 d5015      38.153  12.686  60.529  0.00  0.00     0.423 C 
ATOM     19  F4  LG1 d5015      37.792  13.663  61.410  0.00  0.00    -0.166 F 
ATOM     20  F3  LG1 d5015      38.397  11.584  61.298  0.00  0.00    -0.166 F 
ATOM     21  F5  LG1 d5015      37.023  12.394  59.821  0.00  0.00    -0.166 F 
ENDBRANCH   4  18
TORSDOF 2
ENDMDL
