MODEL 1
REMARK VINA RESULT:    -6.423      0.000      0.000
REMARK INTER + INTRA:          -7.719
REMARK INTER:                  -7.192
REMARK INTRA:                  -0.527
REMARK UNBOUND:                -0.546
REMARK  2 active torsions:
REMARK  status: ('A' for Active; 'I' for Inactive)
REMARK    1  A    between atoms: C1_1  and  N1_15 
REMARK    2  A    between atoms: C7_9  and  C4_4 
ROOT
ATOM      1  C1  LG1 d5015      41.453  13.789  58.037  0.00  0.00     0.141 A 
ATOM      2  C2  LG1 d5015      40.912  14.720  58.924  0.00  0.00     0.187 A 
ATOM      3  C3  LG1 d5015      39.839  14.363  59.740  0.00  0.00     0.175 A 
ATOM      4  C4  LG1 d5015      39.307  13.076  59.670  0.00  0.00     0.131 A 
ATOM      5  C5  LG1 d5015      39.847  12.146  58.783  0.00  0.00     0.175 A 
ATOM      6  C6  LG1 d5015      40.920  12.502  57.967  0.00  0.00     0.187 A 
ATOM      7  F1  LG1 d5015      41.429  11.597  57.119  0.00  0.00    -0.200 F 
ATOM      8  F2  LG1 d5015      39.340  10.906  58.708  0.00  0.00    -0.202 F 
ATOM      9  F6  LG1 d5015      39.327  15.266  60.590  0.00  0.00    -0.202 F 
ATOM     10  F7  LG1 d5015      41.415  15.961  59.002  0.00  0.00    -0.200 F 
ENDROOT
BRANCH   1  11
ATOM     11  N1  LG1 d5015      42.517  14.142  57.226  0.00  0.00    -0.232 N 
ATOM     12  N2  LG1 d5015      42.291  14.525  55.958  0.00  0.00    -0.172 NA
ATOM     13  C10 LG1 d5015      43.518  14.780  55.496  0.00  0.00     0.053 A 
ATOM     14  C9  LG1 d5015      44.519  14.561  56.461  0.00  0.00     0.055 A 
ATOM     15  C11 LG1 d5015      43.696  15.238  54.107  0.00  0.00     0.072 C 
ATOM     16  C8  LG1 d5015      43.834  14.146  57.577  0.00  0.00     0.035 A 
ATOM     17  C12 LG1 d5015      44.324  13.766  58.917  0.00  0.00     0.070 C 
ENDBRANCH   1  11
BRANCH   4  18
ATOM     18  C7  LG1 d5015      38.158  12.696  60.543  0.00  0.00     0.423 C 
ATOM     19  F4  LG1 d5015      37.791  13.675  61.421  0.00  0.00    -0.166 F 
ATOM     20  F3  LG1 d5015      38.399  11.596  61.316  0.00  0.00    -0.166 F 
ATOM     21  F5  LG1 d5015      37.032  12.402  59.830  0.00  0.00    -0.166 F 
ENDBRANCH   4  18
TORSDOF 2
ENDMDL
MODEL 2
REMARK VINA RESULT:    -6.417      0.039      2.326
REMARK INTER + INTRA:          -7.713
REMARK INTER:                  -7.174
REMARK INTRA:                  -0.539
REMARK UNBOUND:                -0.546
REMARK  2 active torsions:
REMARK  status: ('A' for Active; 'I' for Inactive)
REMARK    1  A    between atoms: C1_1  and  N1_15 
REMARK    2  A    between atoms: C7_9  and  C4_4 
ROOT
ATOM      1  C1  LG1 d5015      41.439  13.776  58.009  0.00  0.00     0.141 A 
ATOM      2  C2  LG1 d5015      40.904  12.489  57.940  0.00  0.00     0.187 A 
ATOM      3  C3  LG1 d5015      39.833  12.135  58.761  0.00  0.00     0.175 A 
ATOM      4  C4  LG1 d5015      39.298  13.066  59.651  0.00  0.00     0.131 A 
ATOM      5  C5  LG1 d5015      39.834  14.352  59.720  0.00  0.00     0.175 A 
ATOM      6  C6  LG1 d5015      40.903  14.706  58.899  0.00  0.00     0.187 A 
ATOM      7  F1  LG1 d5015      41.408  15.946  58.977  0.00  0.00    -0.200 F 
ATOM      8  F2  LG1 d5015      39.325  15.253  60.573  0.00  0.00    -0.202 F 
ATOM      9  F6  LG1 d5015      39.325  10.895  58.686  0.00  0.00    -0.202 F 
ATOM     10  F7  LG1 d5015      41.408  11.584  57.089  0.00  0.00    -0.200 F 
ENDROOT
BRANCH   1  11
ATOM     11  N1  LG1 d5015      42.501  14.128  57.196  0.00  0.00    -0.232 N 
ATOM     12  N2  LG1 d5015      42.270  14.542  55.938  0.00  0.00    -0.172 NA
ATOM     13  C10 LG1 d5015      43.497  14.786  55.470  0.00  0.00     0.053 A 
ATOM     14  C9  LG1 d5015      44.503  14.530  56.421  0.00  0.00     0.055 A 
ATOM     15  C11 LG1 d5015      43.670  15.272  54.090  0.00  0.00     0.072 C 
ATOM     16  C8  LG1 d5015      43.822  14.102  57.534  0.00  0.00     0.035 A 
ATOM     17  C12 LG1 d5015      44.317  13.685  58.860  0.00  0.00     0.070 C 
ENDBRANCH   1  11
BRANCH   4  18
ATOM     18  C7  LG1 d5015      38.153  12.686  60.529  0.00  0.00     0.423 C 
ATOM     19  F4  LG1 d5015      37.792  13.663  61.410  0.00  0.00    -0.166 F 
ATOM     20  F3  LG1 d5015      38.397  11.584  61.298  0.00  0.00    -0.166 F 
ATOM     21  F5  LG1 d5015      37.023  12.394  59.821  0.00  0.00    -0.166 F 
ENDBRANCH   4  18
TORSDOF 2
ENDMDL
MODEL 3
REMARK VINA RESULT:    -5.959      4.212      6.510
REMARK INTER + INTRA:          -7.202
REMARK INTER:                  -6.644
REMARK INTRA:                  -0.558
REMARK UNBOUND:                -0.546
REMARK  2 active torsions:
REMARK  status: ('A' for Active; 'I' for Inactive)
REMARK    1  A    between atoms: C1_1  and  N1_15 
REMARK    2  A    between atoms: C7_9  and  C4_4 
ROOT
ATOM      1  C1  LG1 d5015      41.567  10.314  59.154  0.00  0.00     0.141 A 
ATOM      2  C2  LG1 d5015      41.169   9.295  58.288  0.00  0.00     0.187 A 
ATOM      3  C3  LG1 d5015      41.911   8.117  58.209  0.00  0.00     0.175 A 
ATOM      4  C4  LG1 d5015      43.053   7.958  58.995  0.00  0.00     0.131 A 
ATOM      5  C5  LG1 d5015      43.452   8.977  59.860  0.00  0.00     0.175 A 
ATOM      6  C6  LG1 d5015      42.709  10.154  59.939  0.00  0.00     0.187 A 
ATOM      7  F1  LG1 d5015      43.104  11.124  60.776  0.00  0.00    -0.200 F 
ATOM      8  F2  LG1 d5015      44.548   8.832  60.619  0.00  0.00    -0.202 F 
ATOM      9  F6  LG1 d5015      41.519   7.144  57.374  0.00  0.00    -0.202 F 
ATOM     10  F7  LG1 d5015      40.073   9.435  57.528  0.00  0.00    -0.200 F 
ENDROOT
BRANCH   1  11
ATOM     11  N1  LG1 d5015      40.831  11.482  59.233  0.00  0.00    -0.232 N 
ATOM     12  N2  LG1 d5015      39.866  11.602  60.161  0.00  0.00    -0.172 NA
ATOM     13  C10 LG1 d5015      39.386  12.828  59.941  0.00  0.00     0.053 A 
ATOM     14  C9  LG1 d5015      40.037  13.486  58.881  0.00  0.00     0.055 A 
ATOM     15  C11 LG1 d5015      38.288  13.344  60.777  0.00  0.00     0.072 C 
ATOM     16  C8  LG1 d5015      40.974  12.583  58.441  0.00  0.00     0.035 A 
ATOM     17  C12 LG1 d5015      41.968  12.684  57.355  0.00  0.00     0.070 C 
ENDBRANCH   1  11
BRANCH   4  18
ATOM     18  C7  LG1 d5015      43.847   6.698  58.908  0.00  0.00     0.423 C 
ATOM     19  F4  LG1 d5015      43.123   5.575  59.187  0.00  0.00    -0.166 F 
ATOM     20  F3  LG1 d5015      44.908   6.660  59.768  0.00  0.00    -0.166 F 
ATOM     21  F5  LG1 d5015      44.376   6.495  57.667  0.00  0.00    -0.166 F 
ENDBRANCH   4  18
TORSDOF 2
ENDMDL
MODEL 4
REMARK VINA RESULT:    -5.944      4.206      6.225
REMARK INTER + INTRA:          -7.184
REMARK INTER:                  -6.631
REMARK INTRA:                  -0.553
REMARK UNBOUND:                -0.546
REMARK  2 active torsions:
REMARK  status: ('A' for Active; 'I' for Inactive)
REMARK    1  A    between atoms: C1_1  and  N1_15 
REMARK    2  A    between atoms: C7_9  and  C4_4 
ROOT
ATOM      1  C1  LG1 d5015      41.594  10.357  59.161  0.00  0.00     0.141 A 
ATOM      2  C2  LG1 d5015      42.741  10.231  59.945  0.00  0.00     0.187 A 
ATOM      3  C3  LG1 d5015      43.494   9.058  59.896  0.00  0.00     0.175 A 
ATOM      4  C4  LG1 d5015      43.100   8.010  59.064  0.00  0.00     0.131 A 
ATOM      5  C5  LG1 d5015      41.953   8.136  58.281  0.00  0.00     0.175 A 
ATOM      6  C6  LG1 d5015      41.201   9.309  58.329  0.00  0.00     0.187 A 
ATOM      7  F1  LG1 d5015      40.100   9.415  57.570  0.00  0.00    -0.200 F 
ATOM      8  F2  LG1 d5015      41.566   7.133  57.477  0.00  0.00    -0.202 F 
ATOM      9  F6  LG1 d5015      44.595   8.947  60.654  0.00  0.00    -0.202 F 
ATOM     10  F7  LG1 d5015      43.131  11.230  60.750  0.00  0.00    -0.200 F 
ENDROOT
BRANCH   1  11
ATOM     11  N1  LG1 d5015      40.847  11.519  59.210  0.00  0.00    -0.232 N 
ATOM     12  N2  LG1 d5015      39.867  11.646  60.122  0.00  0.00    -0.172 NA
ATOM     13  C10 LG1 d5015      39.378  12.863  59.874  0.00  0.00     0.053 A 
ATOM     14  C9  LG1 d5015      40.039  13.509  58.811  0.00  0.00     0.055 A 
ATOM     15  C11 LG1 d5015      38.264  13.383  60.685  0.00  0.00     0.072 C 
ATOM     16  C8  LG1 d5015      40.990  12.607  58.401  0.00  0.00     0.035 A 
ATOM     17  C12 LG1 d5015      41.999  12.700  57.327  0.00  0.00     0.070 C 
ENDBRANCH   1  11
BRANCH   4  18
ATOM     18  C7  LG1 d5015      43.905   6.755  59.012  0.00  0.00     0.423 C 
ATOM     19  F4  LG1 d5015      43.177   5.628  59.261  0.00  0.00    -0.166 F 
ATOM     20  F3  LG1 d5015      44.928   6.725  59.916  0.00  0.00    -0.166 F 
ATOM     21  F5  LG1 d5015      44.487   6.555  57.795  0.00  0.00    -0.166 F 
ENDBRANCH   4  18
TORSDOF 2
ENDMDL
MODEL 5
REMARK VINA RESULT:    -5.885      4.038      5.582
REMARK INTER + INTRA:          -7.119
REMARK INTER:                  -6.573
REMARK INTRA:                  -0.546
REMARK UNBOUND:                -0.546
REMARK  2 active torsions:
REMARK  status: ('A' for Active; 'I' for Inactive)
REMARK    1  A    between atoms: C1_1  and  N1_15 
REMARK    2  A    between atoms: C7_9  and  C4_4 
ROOT
ATOM      1  C1  LG1 d5015      41.793  10.639  58.980  0.00  0.00     0.141 A 
ATOM      2  C2  LG1 d5015      42.879  10.562  59.852  0.00  0.00     0.187 A 
ATOM      3  C3  LG1 d5015      43.407   9.319  60.201  0.00  0.00     0.175 A 
ATOM      4  C4  LG1 d5015      42.848   8.153  59.679  0.00  0.00     0.131 A 
ATOM      5  C5  LG1 d5015      41.762   8.229  58.809  0.00  0.00     0.175 A 
ATOM      6  C6  LG1 d5015      41.235   9.472  58.459  0.00  0.00     0.187 A 
ATOM      7  F1  LG1 d5015      40.190   9.530  57.621  0.00  0.00    -0.200 F 
ATOM      8  F2  LG1 d5015      41.217   7.112  58.302  0.00  0.00    -0.202 F 
ATOM      9  F6  LG1 d5015      44.453   9.257  61.039  0.00  0.00    -0.202 F 
ATOM     10  F7  LG1 d5015      43.427  11.676  60.361  0.00  0.00    -0.200 F 
ENDROOT
BRANCH   1  11
ATOM     11  N1  LG1 d5015      41.269  11.871  58.634  0.00  0.00    -0.232 N 
ATOM     12  N2  LG1 d5015      41.817  12.570  57.625  0.00  0.00    -0.172 NA
ATOM     13  C10 LG1 d5015      41.070  13.676  57.583  0.00  0.00     0.053 A 
ATOM     14  C9  LG1 d5015      40.053  13.684  58.557  0.00  0.00     0.055 A 
ATOM     15  C11 LG1 d5015      41.361  14.717  56.582  0.00  0.00     0.072 C 
ATOM     16  C8  LG1 d5015      40.210  12.494  59.225  0.00  0.00     0.035 A 
ATOM     17  C12 LG1 d5015      39.448  11.919  60.351  0.00  0.00     0.070 C 
ENDBRANCH   1  11
BRANCH   4  18
ATOM     18  C7  LG1 d5015      43.413   6.823  60.054  0.00  0.00     0.423 C 
ATOM     19  F4  LG1 d5015      44.743   6.697  59.776  0.00  0.00    -0.166 F 
ATOM     20  F3  LG1 d5015      42.814   5.775  59.415  0.00  0.00    -0.166 F 
ATOM     21  F5  LG1 d5015      43.289   6.558  61.387  0.00  0.00    -0.166 F 
ENDBRANCH   4  18
TORSDOF 2
ENDMDL
