REMARK INTER + INTRA:          -5.653
REMARK INTER:                  -5.455
REMARK INTRA:                  -0.197
REMARK UNBOUND:                -0.176
REMARK  1 active torsions:
REMARK  status: ('A' for Active; 'I' for Inactive)
REMARK    1  A    between atoms: C1_1  and  N1_10 
ROOT
ATOM      1  C1  LG1 d5015      42.068  10.107  58.984  0.00  0.00     0.056 A 
ATOM      2  C2  LG1 d5015      42.966   9.797  60.005  0.00  0.00    -0.033 A 
ATOM      3  C3  LG1 d5015      43.208   8.464  60.340  0.00  0.00     0.028 A 
ATOM      4  C4  LG1 d5015      42.553   7.442  59.654  0.00  0.00     0.012 A 
ATOM      5  C5  LG1 d5015      41.654   7.753  58.633  0.00  0.00     0.028 A 
ATOM      6  C6  LG1 d5015      41.412   9.084  58.299  0.00  0.00    -0.033 A 
ATOM      7  C7  LG1 d5015      40.444   9.385  57.200  0.00  0.00     0.050 C 
ATOM      8 BR1  LG1 d5015      42.881   5.637  60.110  0.00  0.00    -0.051 Br
ATOM      9  C8  LG1 d5015      43.684  10.870  60.757  0.00  0.00     0.050 C 
ENDROOT
BRANCH   1  10
ATOM     10  N1  LG1 d5015      41.819  11.478  58.638  0.00  0.00    -0.265 N 
ATOM     11  C11 LG1 d5015      42.599  12.213  57.745  0.00  0.00     0.148 C 
ATOM     12  S2  LG1 d5015      43.809  11.715  56.699  0.00  0.00    -0.052 SA
ATOM     13  S1  LG1 d5015      42.064  13.889  57.746  0.00  0.00    -0.090 SA
ATOM     14  C10 LG1 d5015      40.595  13.549  58.716  0.00  0.00     0.185 C 
ATOM     15  C9  LG1 d5015      40.741  12.148  59.234  0.00  0.00     0.239 C 
ATOM     16  O1  LG1 d5015      39.977  11.716  60.093  0.00  0.00    -0.272 OA
ENDBRANCH   1  10
TORSDOF 1
ENDMDL
