REMARK INTER + INTRA:          -6.929
REMARK INTER:                  -7.033
REMARK INTRA:                   0.104
REMARK UNBOUND:                -0.132
REMARK  1 active torsions:
REMARK  status: ('A' for Active; 'I' for Inactive)
REMARK    1  A    between atoms: C10_13  and  C11_14 
ROOT
ATOM      1  C1  LG1 d5015      39.628  12.407  59.643  0.00  0.00     0.018 C 
ATOM      2  C2  LG1 d5015      40.615  11.587  58.897  0.00  0.00     0.193 C 
ATOM      3  C3  LG1 d5015      41.431  12.345  57.925  0.00  0.00     0.049 A 
ATOM      4  C4  LG1 d5015      42.317  11.674  57.080  0.00  0.00     0.037 A 
ATOM      5  C5  LG1 d5015      43.127  12.402  56.208  0.00  0.00     0.012 A 
ATOM      6  C6  LG1 d5015      43.060  13.796  56.184  0.00  0.00     0.022 A 
ATOM      7  C7  LG1 d5015      42.176  14.466  57.031  0.00  0.00     0.039 A 
ATOM      8  C8  LG1 d5015      41.349  13.742  57.890  0.00  0.00     0.083 A 
ATOM      9  O1  LG1 d5015      40.518  14.464  58.705  0.00  0.00    -0.346 OA
ATOM     10  C9  LG1 d5015      39.329  13.754  59.070  0.00  0.00     0.218 C 
ATOM     11 BR1  LG1 d5015      44.308  11.497  55.040  0.00  0.00    -0.051 Br
ATOM     12  O2  LG1 d5015      40.757  10.384  59.058  0.00  0.00    -0.287 OA
ATOM     13  C10 LG1 d5015      39.067  11.912  60.753  0.00  0.00     0.025 C 
ENDROOT
BRANCH  13  14
ATOM     14  C11 LG1 d5015      38.105  12.605  61.556  0.00  0.00    -0.029 A 
ATOM     15  C14 LG1 d5015      36.880  12.070  61.884  0.00  0.00     0.061 A 
ATOM     16  S1  LG1 d5015      35.953  13.133  62.853  0.00  0.00    -0.113 SA
ATOM     17  C13 LG1 d5015      37.191  14.316  62.836  0.00  0.00     0.050 A 
ATOM     18  C12 LG1 d5015      38.285  13.907  62.108  0.00  0.00     0.019 A 
ENDBRANCH  13  14
TORSDOF 1
ENDMDL
