REMARK INTER + INTRA:         -11.361
REMARK INTER:                 -11.212
REMARK INTRA:                  -0.149
REMARK UNBOUND:                 0.047
REMARK  1 active torsions:
REMARK  status: ('A' for Active; 'I' for Inactive)
REMARK    1  A    between atoms: C7_7  and  C4_4 
ROOT
ATOM      1  C1  LG1 d5015      37.844  32.391  43.316  0.00  0.00    -0.004 C 
ATOM      2  C2  LG1 d5015      37.426  32.531  44.784  0.00  0.00    -0.001 C 
ATOM      3  C3  LG1 d5015      35.880  32.768  44.963  0.00  0.00    -0.030 C 
ATOM      4  C4  LG1 d5015      35.824  32.774  46.527  0.00  0.00     0.063 C 
ATOM      5  C5  LG1 d5015      36.824  31.650  46.973  0.00  0.00     0.013 C 
ATOM      6  C6  LG1 d5015      37.744  31.351  45.734  0.00  0.00     0.006 C 
ATOM      7  C9  LG1 d5015      35.002  31.593  44.407  0.00  0.00     0.016 C 
ATOM      8  C10 LG1 d5015      35.576  34.117  44.273  0.00  0.00     0.011 C 
ATOM      9  C11 LG1 d5015      35.985  34.085  42.774  0.00  0.00     0.007 C 
ATOM     10  C12 LG1 d5015      37.481  33.723  42.581  0.00  0.00     0.002 C 
ATOM     11  C13 LG1 d5015      37.881  33.711  41.059  0.00  0.00    -0.016 C 
ATOM     12  C14 LG1 d5015      39.409  33.318  40.943  0.00  0.00    -0.068 C 
ATOM     13  C15 LG1 d5015      40.278  33.969  40.190  0.00  0.00     0.053 C 
ATOM     14  C16 LG1 d5015      39.863  35.041  39.299  0.00  0.00     0.149 C 
ATOM     15  C17 LG1 d5015      38.383  35.375  39.141  0.00  0.00     0.084 C 
ATOM     16  C18 LG1 d5015      37.654  35.136  40.487  0.00  0.00     0.022 C 
ATOM     17  O2  LG1 d5015      40.702  35.643  38.604  0.00  0.00    -0.293 OA
ATOM     18  C19 LG1 d5015      39.903  32.140  41.776  0.00  0.00     0.035 C 
ATOM     19  C20 LG1 d5015      39.378  32.187  43.224  0.00  0.00     0.010 C 
ATOM     20  C21 LG1 d5015      37.081  32.633  40.232  0.00  0.00     0.020 C 
ENDROOT
BRANCH   4  21
ATOM     21  C7  LG1 d5015      34.411  32.664  47.124  0.00  0.00     0.128 C 
ATOM     22  O1  LG1 d5015      34.067  31.651  47.695  0.00  0.00    -0.298 OA
ATOM     23  C8  LG1 d5015      33.472  33.814  47.002  0.00  0.00     0.091 C 
ENDBRANCH   4  21
TORSDOF 1
ENDMDL
