REMARK INTER + INTRA:          -9.402
REMARK INTER:                  -9.253
REMARK INTRA:                  -0.149
REMARK UNBOUND:                 0.021
REMARK  1 active torsions:
REMARK  status: ('A' for Active; 'I' for Inactive)
REMARK    1  A    between atoms: C7_7  and  C4_4 
ROOT
ATOM      1  C1  LG1 d5015      38.105  32.686  44.223  0.00  0.00    -0.004 C 
ATOM      2  C2  LG1 d5015      38.552  32.520  42.766  0.00  0.00    -0.001 C 
ATOM      3  C3  LG1 d5015      38.655  33.889  41.996  0.00  0.00    -0.030 C 
ATOM      4  C4  LG1 d5015      39.198  33.349  40.631  0.00  0.00     0.063 C 
ATOM      5  C5  LG1 d5015      40.222  32.224  41.018  0.00  0.00     0.013 C 
ATOM      6  C6  LG1 d5015      39.917  31.835  42.510  0.00  0.00     0.006 C 
ATOM      7  C9  LG1 d5015      39.696  34.881  42.624  0.00  0.00     0.016 C 
ATOM      8  C10 LG1 d5015      37.223  34.468  41.969  0.00  0.00     0.011 C 
ATOM      9  C11 LG1 d5015      36.667  34.657  43.408  0.00  0.00     0.007 C 
ATOM     10  C12 LG1 d5015      36.683  33.336  44.221  0.00  0.00     0.002 C 
ATOM     11  C13 LG1 d5015      36.102  33.542  45.669  0.00  0.00    -0.016 C 
ATOM     12  C14 LG1 d5015      36.168  32.162  46.440  0.00  0.00    -0.068 C 
ATOM     13  C15 LG1 d5015      35.162  31.660  47.133  0.00  0.00     0.053 C 
ATOM     14  C16 LG1 d5015      33.934  32.411  47.348  0.00  0.00     0.149 C 
ATOM     15  C17 LG1 d5015      33.820  33.849  46.851  0.00  0.00     0.084 C 
ATOM     16  C18 LG1 d5015      34.627  34.007  45.539  0.00  0.00     0.022 C 
ATOM     17  O2  LG1 d5015      32.998  31.914  47.999  0.00  0.00    -0.293 OA
ATOM     18  C19 LG1 d5015      37.460  31.358  46.343  0.00  0.00     0.035 C 
ATOM     19  C20 LG1 d5015      38.004  31.296  44.903  0.00  0.00     0.010 C 
ATOM     20  C21 LG1 d5015      36.947  34.566  46.520  0.00  0.00     0.020 C 
ENDROOT
BRANCH   4  21
ATOM     21  C7  LG1 d5015      39.743  34.427  39.680  0.00  0.00     0.128 C 
ATOM     22  O1  LG1 d5015      40.935  34.508  39.468  0.00  0.00    -0.298 OA
ATOM     23  C8  LG1 d5015      38.796  35.365  39.014  0.00  0.00     0.091 C 
ENDBRANCH   4  21
TORSDOF 1
ENDMDL
