REMARK INTER + INTRA:         -11.359
REMARK INTER:                 -11.214
REMARK INTRA:                  -0.145
REMARK UNBOUND:                 0.195
REMARK  1 active torsions:
REMARK  status: ('A' for Active; 'I' for Inactive)
REMARK    1  A    between atoms: C7_7  and  C4_4 
ROOT
ATOM      1  C1  LG1 d5015      37.842  32.392  43.313  0.00  0.00    -0.004 C 
ATOM      2  C2  LG1 d5015      37.427  32.530  44.782  0.00  0.00    -0.001 C 
ATOM      3  C3  LG1 d5015      35.881  32.766  44.963  0.00  0.00    -0.030 C 
ATOM      4  C4  LG1 d5015      35.826  32.769  46.527  0.00  0.00     0.063 C 
ATOM      5  C5  LG1 d5015      36.828  31.646  46.971  0.00  0.00     0.013 C 
ATOM      6  C6  LG1 d5015      37.746  31.349  45.730  0.00  0.00     0.006 C 
ATOM      7  C9  LG1 d5015      35.002  31.590  44.407  0.00  0.00     0.016 C 
ATOM      8  C10 LG1 d5015      35.574  34.114  44.274  0.00  0.00     0.011 C 
ATOM      9  C11 LG1 d5015      35.981  34.084  42.775  0.00  0.00     0.007 C 
ATOM     10  C12 LG1 d5015      37.477  33.725  42.580  0.00  0.00     0.002 C 
ATOM     11  C13 LG1 d5015      37.875  33.715  41.058  0.00  0.00    -0.016 C 
ATOM     12  C14 LG1 d5015      39.404  33.323  40.939  0.00  0.00    -0.068 C 
ATOM     13  C15 LG1 d5015      40.271  33.976  40.186  0.00  0.00     0.053 C 
ATOM     14  C16 LG1 d5015      39.854  35.048  39.296  0.00  0.00     0.149 C 
ATOM     15  C17 LG1 d5015      38.373  35.381  39.141  0.00  0.00     0.084 C 
ATOM     16  C18 LG1 d5015      37.646  35.140  40.487  0.00  0.00     0.022 C 
ATOM     17  O2  LG1 d5015      40.691  35.652  38.601  0.00  0.00    -0.293 OA
ATOM     18  C19 LG1 d5015      39.899  32.145  41.770  0.00  0.00     0.035 C 
ATOM     19  C20 LG1 d5015      39.376  32.190  43.219  0.00  0.00     0.010 C 
ATOM     20  C21 LG1 d5015      37.075  32.637  40.230  0.00  0.00     0.020 C 
ENDROOT
BRANCH   4  21
ATOM     21  C7  LG1 d5015      34.414  32.657  47.126  0.00  0.00     0.128 C 
ATOM     22  O1  LG1 d5015      34.074  31.644  47.699  0.00  0.00    -0.298 OA
ATOM     23  C8  LG1 d5015      33.472  33.805  47.003  0.00  0.00     0.091 C 
ENDBRANCH   4  21
TORSDOF 1
ENDMDL
