REMARK INTER + INTRA:         -11.348
REMARK INTER:                 -11.203
REMARK INTRA:                  -0.145
REMARK UNBOUND:                 0.235
REMARK  1 active torsions:
REMARK  status: ('A' for Active; 'I' for Inactive)
REMARK    1  A    between atoms: C7_7  and  C4_4 
ROOT
ATOM      1  C1  LG1 d5015      37.845  32.393  43.316  0.00  0.00    -0.004 C 
ATOM      2  C2  LG1 d5015      37.427  32.531  44.784  0.00  0.00    -0.001 C 
ATOM      3  C3  LG1 d5015      35.881  32.766  44.963  0.00  0.00    -0.030 C 
ATOM      4  C4  LG1 d5015      35.825  32.769  46.527  0.00  0.00     0.063 C 
ATOM      5  C5  LG1 d5015      36.827  31.646  46.972  0.00  0.00     0.013 C 
ATOM      6  C6  LG1 d5015      37.747  31.350  45.732  0.00  0.00     0.006 C 
ATOM      7  C9  LG1 d5015      35.004  31.590  44.406  0.00  0.00     0.016 C 
ATOM      8  C10 LG1 d5015      35.575  34.114  44.275  0.00  0.00     0.011 C 
ATOM      9  C11 LG1 d5015      35.983  34.085  42.776  0.00  0.00     0.007 C 
ATOM     10  C12 LG1 d5015      37.479  33.726  42.582  0.00  0.00     0.002 C 
ATOM     11  C13 LG1 d5015      37.878  33.716  41.060  0.00  0.00    -0.016 C 
ATOM     12  C14 LG1 d5015      39.407  33.326  40.942  0.00  0.00    -0.068 C 
ATOM     13  C15 LG1 d5015      40.275  33.979  40.190  0.00  0.00     0.053 C 
ATOM     14  C16 LG1 d5015      39.858  35.051  39.300  0.00  0.00     0.149 C 
ATOM     15  C17 LG1 d5015      38.377  35.383  39.144  0.00  0.00     0.084 C 
ATOM     16  C18 LG1 d5015      37.649  35.141  40.489  0.00  0.00     0.022 C 
ATOM     17  O2  LG1 d5015      40.696  35.655  38.607  0.00  0.00    -0.293 OA
ATOM     18  C19 LG1 d5015      39.903  32.148  41.774  0.00  0.00     0.035 C 
ATOM     19  C20 LG1 d5015      39.379  32.192  43.222  0.00  0.00     0.010 C 
ATOM     20  C21 LG1 d5015      37.080  32.638  40.232  0.00  0.00     0.020 C 
ENDROOT
BRANCH   4  21
ATOM     21  C7  LG1 d5015      34.413  32.656  47.125  0.00  0.00     0.128 C 
ATOM     22  O1  LG1 d5015      34.072  31.642  47.695  0.00  0.00    -0.298 OA
ATOM     23  C8  LG1 d5015      33.471  33.804  47.004  0.00  0.00     0.091 C 
ENDBRANCH   4  21
TORSDOF 1
ENDMDL
