REMARK INTER + INTRA:          -9.358
REMARK INTER:                  -9.206
REMARK INTRA:                  -0.152
REMARK UNBOUND:                 0.256
REMARK  1 active torsions:
REMARK  status: ('A' for Active; 'I' for Inactive)
REMARK    1  A    between atoms: C7_7  and  C4_4 
ROOT
ATOM      1  C1  LG1 d5015      38.132  32.684  44.197  0.00  0.00    -0.004 C 
ATOM      2  C2  LG1 d5015      38.564  32.532  42.735  0.00  0.00    -0.001 C 
ATOM      3  C3  LG1 d5015      38.674  33.909  41.980  0.00  0.00    -0.030 C 
ATOM      4  C4  LG1 d5015      39.201  33.380  40.605  0.00  0.00     0.063 C 
ATOM      5  C5  LG1 d5015      40.216  32.241  40.969  0.00  0.00     0.013 C 
ATOM      6  C6  LG1 d5015      39.919  31.836  42.459  0.00  0.00     0.006 C 
ATOM      7  C9  LG1 d5015      39.731  34.883  42.611  0.00  0.00     0.016 C 
ATOM      8  C10 LG1 d5015      37.248  34.503  41.973  0.00  0.00     0.011 C 
ATOM      9  C11 LG1 d5015      36.706  34.679  43.419  0.00  0.00     0.007 C 
ATOM     10  C12 LG1 d5015      36.715  33.348  44.215  0.00  0.00     0.002 C 
ATOM     11  C13 LG1 d5015      36.149  33.543  45.670  0.00  0.00    -0.016 C 
ATOM     12  C14 LG1 d5015      36.207  32.152  46.424  0.00  0.00    -0.068 C 
ATOM     13  C15 LG1 d5015      35.202  31.652  47.120  0.00  0.00     0.053 C 
ATOM     14  C16 LG1 d5015      33.984  32.412  47.354  0.00  0.00     0.149 C 
ATOM     15  C17 LG1 d5015      33.880  33.857  46.876  0.00  0.00     0.084 C 
ATOM     16  C18 LG1 d5015      34.678  34.024  45.558  0.00  0.00     0.022 C 
ATOM     17  O2  LG1 d5015      33.048  31.917  48.007  0.00  0.00    -0.293 OA
ATOM     18  C19 LG1 d5015      37.491  31.337  46.306  0.00  0.00     0.035 C 
ATOM     19  C20 LG1 d5015      38.022  31.287  44.860  0.00  0.00     0.010 C 
ATOM     20  C21 LG1 d5015      37.011  34.547  46.527  0.00  0.00     0.020 C 
ENDROOT
BRANCH   4  21
ATOM     21  C7  LG1 d5015      39.749  34.464  39.662  0.00  0.00     0.128 C 
ATOM     22  O1  LG1 d5015      40.941  34.556  39.464  0.00  0.00    -0.298 OA
ATOM     23  C8  LG1 d5015      38.803  35.396  38.986  0.00  0.00     0.091 C 
ENDBRANCH   4  21
TORSDOF 1
ENDMDL
