MODEL 1
REMARK VINA RESULT:   -10.967      0.000      0.000
REMARK INTER + INTRA:         -11.352
REMARK INTER:                 -11.204
REMARK INTRA:                  -0.147
REMARK UNBOUND:                 0.256
REMARK  1 active torsions:
REMARK  status: ('A' for Active; 'I' for Inactive)
REMARK    1  A    between atoms: C7_7  and  C4_4 
ROOT
ATOM      1  C1  LG1 d5015      37.847  32.392  43.315  0.00  0.00    -0.004 C 
ATOM      2  C2  LG1 d5015      37.426  32.528  44.782  0.00  0.00    -0.001 C 
ATOM      3  C3  LG1 d5015      35.879  32.759  44.959  0.00  0.00    -0.030 C 
ATOM      4  C4  LG1 d5015      35.821  32.762  46.523  0.00  0.00     0.063 C 
ATOM      5  C5  LG1 d5015      36.824  31.641  46.969  0.00  0.00     0.013 C 
ATOM      6  C6  LG1 d5015      37.747  31.347  45.730  0.00  0.00     0.006 C 
ATOM      7  C9  LG1 d5015      35.006  31.582  44.399  0.00  0.00     0.016 C 
ATOM      8  C10 LG1 d5015      35.571  34.108  44.271  0.00  0.00     0.011 C 
ATOM      9  C11 LG1 d5015      35.983  34.080  42.772  0.00  0.00     0.007 C 
ATOM     10  C12 LG1 d5015      37.480  33.725  42.581  0.00  0.00     0.002 C 
ATOM     11  C13 LG1 d5015      37.882  33.717  41.060  0.00  0.00    -0.016 C 
ATOM     12  C14 LG1 d5015      39.412  33.330  40.945  0.00  0.00    -0.068 C 
ATOM     13  C15 LG1 d5015      40.280  33.985  40.195  0.00  0.00     0.053 C 
ATOM     14  C16 LG1 d5015      39.863  35.057  39.305  0.00  0.00     0.149 C 
ATOM     15  C17 LG1 d5015      38.381  35.386  39.146  0.00  0.00     0.084 C 
ATOM     16  C18 LG1 d5015      37.651  35.142  40.490  0.00  0.00     0.022 C 
ATOM     17  O2  LG1 d5015      40.700  35.663  38.613  0.00  0.00    -0.293 OA
ATOM     18  C19 LG1 d5015      39.909  32.152  41.777  0.00  0.00     0.035 C 
ATOM     19  C20 LG1 d5015      39.381  32.194  43.224  0.00  0.00     0.010 C 
ATOM     20  C21 LG1 d5015      37.088  32.637  40.230  0.00  0.00     0.020 C 
ENDROOT
BRANCH   4  21
ATOM     21  C7  LG1 d5015      34.407  32.645  47.117  0.00  0.00     0.128 C 
ATOM     22  O1  LG1 d5015      34.066  31.630  47.685  0.00  0.00    -0.298 OA
ATOM     23  C8  LG1 d5015      33.464  33.792  46.998  0.00  0.00     0.091 C 
ENDBRANCH   4  21
TORSDOF 1
ENDMDL
MODEL 2
REMARK VINA RESULT:    -9.083      1.166      6.904
REMARK INTER + INTRA:          -9.358
REMARK INTER:                  -9.206
REMARK INTRA:                  -0.152
REMARK UNBOUND:                 0.256
REMARK  1 active torsions:
REMARK  status: ('A' for Active; 'I' for Inactive)
REMARK    1  A    between atoms: C7_7  and  C4_4 
ROOT
ATOM      1  C1  LG1 d5015      38.132  32.684  44.197  0.00  0.00    -0.004 C 
ATOM      2  C2  LG1 d5015      38.564  32.532  42.735  0.00  0.00    -0.001 C 
ATOM      3  C3  LG1 d5015      38.674  33.909  41.980  0.00  0.00    -0.030 C 
ATOM      4  C4  LG1 d5015      39.201  33.380  40.605  0.00  0.00     0.063 C 
ATOM      5  C5  LG1 d5015      40.216  32.241  40.969  0.00  0.00     0.013 C 
ATOM      6  C6  LG1 d5015      39.919  31.836  42.459  0.00  0.00     0.006 C 
ATOM      7  C9  LG1 d5015      39.731  34.883  42.611  0.00  0.00     0.016 C 
ATOM      8  C10 LG1 d5015      37.248  34.503  41.973  0.00  0.00     0.011 C 
ATOM      9  C11 LG1 d5015      36.706  34.679  43.419  0.00  0.00     0.007 C 
ATOM     10  C12 LG1 d5015      36.715  33.348  44.215  0.00  0.00     0.002 C 
ATOM     11  C13 LG1 d5015      36.149  33.543  45.670  0.00  0.00    -0.016 C 
ATOM     12  C14 LG1 d5015      36.207  32.152  46.424  0.00  0.00    -0.068 C 
ATOM     13  C15 LG1 d5015      35.202  31.652  47.120  0.00  0.00     0.053 C 
ATOM     14  C16 LG1 d5015      33.984  32.412  47.354  0.00  0.00     0.149 C 
ATOM     15  C17 LG1 d5015      33.880  33.857  46.876  0.00  0.00     0.084 C 
ATOM     16  C18 LG1 d5015      34.678  34.024  45.558  0.00  0.00     0.022 C 
ATOM     17  O2  LG1 d5015      33.048  31.917  48.007  0.00  0.00    -0.293 OA
ATOM     18  C19 LG1 d5015      37.491  31.337  46.306  0.00  0.00     0.035 C 
ATOM     19  C20 LG1 d5015      38.022  31.287  44.860  0.00  0.00     0.010 C 
ATOM     20  C21 LG1 d5015      37.011  34.547  46.527  0.00  0.00     0.020 C 
ENDROOT
BRANCH   4  21
ATOM     21  C7  LG1 d5015      39.749  34.464  39.662  0.00  0.00     0.128 C 
ATOM     22  O1  LG1 d5015      40.941  34.556  39.464  0.00  0.00    -0.298 OA
ATOM     23  C8  LG1 d5015      38.803  35.396  38.986  0.00  0.00     0.091 C 
ENDBRANCH   4  21
TORSDOF 1
ENDMDL
