REMARK INTER + INTRA:          -9.373
REMARK INTER:                  -9.221
REMARK INTRA:                  -0.152
REMARK UNBOUND:                 0.235
REMARK  1 active torsions:
REMARK  status: ('A' for Active; 'I' for Inactive)
REMARK    1  A    between atoms: C7_7  and  C4_4 
ROOT
ATOM      1  C1  LG1 d5015      38.141  32.683  44.196  0.00  0.00    -0.004 C 
ATOM      2  C2  LG1 d5015      38.561  32.545  42.729  0.00  0.00    -0.001 C 
ATOM      3  C3  LG1 d5015      38.662  33.930  41.987  0.00  0.00    -0.030 C 
ATOM      4  C4  LG1 d5015      39.177  33.416  40.602  0.00  0.00     0.063 C 
ATOM      5  C5  LG1 d5015      40.198  32.274  40.946  0.00  0.00     0.013 C 
ATOM      6  C6  LG1 d5015      39.915  31.855  42.434  0.00  0.00     0.006 C 
ATOM      7  C9  LG1 d5015      39.723  34.899  42.619  0.00  0.00     0.016 C 
ATOM      8  C10 LG1 d5015      37.235  34.521  41.998  0.00  0.00     0.011 C 
ATOM      9  C11 LG1 d5015      36.705  34.683  43.450  0.00  0.00     0.007 C 
ATOM     10  C12 LG1 d5015      36.724  33.345  44.233  0.00  0.00     0.002 C 
ATOM     11  C13 LG1 d5015      36.170  33.524  45.695  0.00  0.00    -0.016 C 
ATOM     12  C14 LG1 d5015      36.237  32.126  46.435  0.00  0.00    -0.068 C 
ATOM     13  C15 LG1 d5015      35.238  31.618  47.134  0.00  0.00     0.053 C 
ATOM     14  C16 LG1 d5015      34.021  32.374  47.386  0.00  0.00     0.149 C 
ATOM     15  C17 LG1 d5015      33.911  33.823  46.923  0.00  0.00     0.084 C 
ATOM     16  C18 LG1 d5015      34.697  34.004  45.601  0.00  0.00     0.022 C 
ATOM     17  O2  LG1 d5015      33.092  31.871  48.043  0.00  0.00    -0.293 OA
ATOM     18  C19 LG1 d5015      37.520  31.314  46.298  0.00  0.00     0.035 C 
ATOM     19  C20 LG1 d5015      38.039  31.280  44.847  0.00  0.00     0.010 C 
ATOM     20  C21 LG1 d5015      37.038  34.522  46.554  0.00  0.00     0.020 C 
ENDROOT
BRANCH   4  21
ATOM     21  C7  LG1 d5015      39.715  34.510  39.665  0.00  0.00     0.128 C 
ATOM     22  O1  LG1 d5015      40.906  34.603  39.457  0.00  0.00    -0.298 OA
ATOM     23  C8  LG1 d5015      38.762  35.448  39.009  0.00  0.00     0.091 C 
ENDBRANCH   4  21
TORSDOF 1
ENDMDL
