REMARK INTER + INTRA:          -7.574
REMARK INTER:                  -7.446
REMARK INTRA:                  -0.128
REMARK UNBOUND:                -0.156
REMARK  1 active torsions:
REMARK  status: ('A' for Active; 'I' for Inactive)
REMARK    1  A    between atoms: C10_13  and  C11_14 
ROOT
ATOM      1  C1  LG1 d5015      37.413  33.379  42.172  0.00  0.00     0.018 C 
ATOM      2  C2  LG1 d5015      36.357  32.571  42.831  0.00  0.00     0.193 C 
ATOM      3  C3  LG1 d5015      36.023  33.004  44.205  0.00  0.00     0.049 A 
ATOM      4  C4  LG1 d5015      35.127  32.260  44.975  0.00  0.00     0.037 A 
ATOM      5  C5  LG1 d5015      34.771  32.708  46.247  0.00  0.00     0.012 A 
ATOM      6  C6  LG1 d5015      35.299  33.899  46.747  0.00  0.00     0.022 A 
ATOM      7  C7  LG1 d5015      36.192  34.644  45.975  0.00  0.00     0.039 A 
ATOM      8  C8  LG1 d5015      36.568  34.190  44.711  0.00  0.00     0.083 A 
ATOM      9  O1  LG1 d5015      37.434  34.979  44.001  0.00  0.00    -0.346 OA
ATOM     10  C9  LG1 d5015      38.237  34.241  43.073  0.00  0.00     0.218 C 
ATOM     11 BR1  LG1 d5015      33.582  31.689  47.308  0.00  0.00    -0.051 Br
ATOM     12  O2  LG1 d5015      35.798  31.623  42.300  0.00  0.00    -0.287 OA
ATOM     13  C10 LG1 d5015      37.574  33.295  40.846  0.00  0.00     0.025 C 
ENDROOT
BRANCH  13  14
ATOM     14  C11 LG1 d5015      38.554  34.023  40.098  0.00  0.00    -0.029 A 
ATOM     15  C14 LG1 d5015      38.254  35.155  39.373  0.00  0.00     0.061 A 
ATOM     16  S1  LG1 d5015      39.631  35.801  38.590  0.00  0.00    -0.113 SA
ATOM     17  C13 LG1 d5015      40.636  34.566  39.220  0.00  0.00     0.050 A 
ATOM     18  C12 LG1 d5015      39.936  33.683  40.010  0.00  0.00     0.019 A 
ENDBRANCH  13  14
TORSDOF 1
ENDMDL
