REMARK INTER + INTRA:          -7.991
REMARK INTER:                  -7.841
REMARK INTRA:                  -0.151
REMARK UNBOUND:                 0.613
REMARK  1 active torsions:
REMARK  status: ('A' for Active; 'I' for Inactive)
REMARK    1  A    between atoms: C10_13  and  C11_14 
ROOT
ATOM      1  C1  LG1 d5015      36.651  33.440  44.237  0.00  0.00     0.018 C 
ATOM      2  C2  LG1 d5015      37.928  33.874  43.618  0.00  0.00     0.193 C 
ATOM      3  C3  LG1 d5015      37.890  33.976  42.143  0.00  0.00     0.049 A 
ATOM      4  C4  LG1 d5015      39.056  34.265  41.431  0.00  0.00     0.037 A 
ATOM      5  C5  LG1 d5015      38.998  34.420  40.045  0.00  0.00     0.012 A 
ATOM      6  C6  LG1 d5015      37.781  34.297  39.373  0.00  0.00     0.022 A 
ATOM      7  C7  LG1 d5015      36.616  34.012  40.087  0.00  0.00     0.039 A 
ATOM      8  C8  LG1 d5015      36.671  33.834  41.469  0.00  0.00     0.083 A 
ATOM      9  O1  LG1 d5015      35.488  33.574  42.109  0.00  0.00    -0.346 OA
ATOM     10  C9  LG1 d5015      35.653  32.820  43.314  0.00  0.00     0.218 C 
ATOM     11 BR1  LG1 d5015      40.579  34.781  39.070  0.00  0.00    -0.051 Br
ATOM     12  O2  LG1 d5015      38.940  34.128  44.255  0.00  0.00    -0.287 OA
ATOM     13  C10 LG1 d5015      36.465  33.615  45.551  0.00  0.00     0.025 C 
ENDROOT
BRANCH  13  14
ATOM     14  C11 LG1 d5015      35.280  33.240  46.261  0.00  0.00    -0.029 A 
ATOM     15  C14 LG1 d5015      35.079  31.974  46.764  0.00  0.00     0.061 A 
ATOM     16  S1  LG1 d5015      33.572  31.832  47.563  0.00  0.00    -0.113 SA
ATOM     17  C13 LG1 d5015      33.182  33.466  47.236  0.00  0.00     0.050 A 
ATOM     18  C12 LG1 d5015      34.181  34.105  46.535  0.00  0.00     0.019 A 
ENDBRANCH  13  14
TORSDOF 1
ENDMDL
