REMARK INTER + INTRA:          -7.610
REMARK INTER:                  -7.493
REMARK INTRA:                  -0.117
REMARK UNBOUND:                 0.372
REMARK  1 active torsions:
REMARK  status: ('A' for Active; 'I' for Inactive)
REMARK    1  A    between atoms: C10_13  and  C11_14 
ROOT
ATOM      1  C1  LG1 d5015      37.445  33.376  42.180  0.00  0.00     0.018 C 
ATOM      2  C2  LG1 d5015      36.377  32.569  42.822  0.00  0.00     0.193 C 
ATOM      3  C3  LG1 d5015      36.023  33.002  44.191  0.00  0.00     0.049 A 
ATOM      4  C4  LG1 d5015      35.113  32.259  44.946  0.00  0.00     0.037 A 
ATOM      5  C5  LG1 d5015      34.739  32.707  46.214  0.00  0.00     0.012 A 
ATOM      6  C6  LG1 d5015      35.262  33.897  46.722  0.00  0.00     0.022 A 
ATOM      7  C7  LG1 d5015      36.168  34.640  45.965  0.00  0.00     0.039 A 
ATOM      8  C8  LG1 d5015      36.563  34.186  44.706  0.00  0.00     0.083 A 
ATOM      9  O1  LG1 d5015      37.441  34.973  44.010  0.00  0.00    -0.346 OA
ATOM     10  C9  LG1 d5015      38.257  34.235  43.094  0.00  0.00     0.218 C 
ATOM     11 BR1  LG1 d5015      33.531  31.690  47.255  0.00  0.00    -0.051 Br
ATOM     12  O2  LG1 d5015      35.825  31.622  42.282  0.00  0.00    -0.287 OA
ATOM     13  C10 LG1 d5015      37.626  33.291  40.856  0.00  0.00     0.025 C 
ENDROOT
BRANCH  13  14
ATOM     14  C11 LG1 d5015      38.620  34.018  40.125  0.00  0.00    -0.029 A 
ATOM     15  C14 LG1 d5015      38.327  35.133  39.371  0.00  0.00     0.061 A 
ATOM     16  S1  LG1 d5015      39.720  35.781  38.616  0.00  0.00    -0.113 SA
ATOM     17  C13 LG1 d5015      40.720  34.571  39.297  0.00  0.00     0.050 A 
ATOM     18  C12 LG1 d5015      40.007  33.693  40.082  0.00  0.00     0.019 A 
ENDBRANCH  13  14
TORSDOF 1
ENDMDL
