REMARK INTER + INTRA:         -10.590
REMARK INTER:                 -10.092
REMARK INTRA:                  -0.498
REMARK UNBOUND:                -0.541
REMARK  2 active torsions:
REMARK  status: ('A' for Active; 'I' for Inactive)
REMARK    1  A    between atoms: C1_1  and  N1_15 
REMARK    2  A    between atoms: C7_9  and  C4_4 
ROOT
ATOM      1  C1  LG1 d5015      38.189  33.826  42.799  0.00  0.00     0.141 A 
ATOM      2  C2  LG1 d5015      37.439  34.627  41.938  0.00  0.00     0.187 A 
ATOM      3  C3  LG1 d5015      37.949  34.973  40.687  0.00  0.00     0.175 A 
ATOM      4  C4  LG1 d5015      39.209  34.521  40.297  0.00  0.00     0.131 A 
ATOM      5  C5  LG1 d5015      39.960  33.721  41.158  0.00  0.00     0.175 A 
ATOM      6  C6  LG1 d5015      39.450  33.374  42.409  0.00  0.00     0.187 A 
ATOM      7  F1  LG1 d5015      40.183  32.604  43.226  0.00  0.00    -0.200 F 
ATOM      8  F2  LG1 d5015      41.173  33.282  40.792  0.00  0.00    -0.202 F 
ATOM      9  F6  LG1 d5015      37.218  35.743  39.866  0.00  0.00    -0.202 F 
ATOM     10  F7  LG1 d5015      36.225  35.069  42.300  0.00  0.00    -0.200 F 
ENDROOT
BRANCH   1  11
ATOM     11  N1  LG1 d5015      37.685  33.482  44.040  0.00  0.00    -0.232 N 
ATOM     12  N2  LG1 d5015      36.832  32.449  44.151  0.00  0.00    -0.172 NA
ATOM     13  C10 LG1 d5015      36.565  32.416  45.459  0.00  0.00     0.053 A 
ATOM     14  C9  LG1 d5015      37.240  33.421  46.178  0.00  0.00     0.055 A 
ATOM     15  C11 LG1 d5015      35.647  31.395  45.992  0.00  0.00     0.072 C 
ATOM     16  C8  LG1 d5015      37.961  34.098  45.224  0.00  0.00     0.035 A 
ATOM     17  C12 LG1 d5015      38.870  35.254  45.351  0.00  0.00     0.070 C 
ENDBRANCH   1  11
BRANCH   4  18
ATOM     18  C7  LG1 d5015      39.754  34.893  38.959  0.00  0.00     0.423 C 
ATOM     19  F4  LG1 d5015      41.073  35.242  38.984  0.00  0.00    -0.166 F 
ATOM     20  F3  LG1 d5015      39.115  35.955  38.385  0.00  0.00    -0.166 F 
ATOM     21  F5  LG1 d5015      39.660  33.877  38.053  0.00  0.00    -0.166 F 
ENDBRANCH   4  18
TORSDOF 2
ENDMDL
