REMARK INTER + INTRA:          -7.200
REMARK INTER:                  -7.036
REMARK INTRA:                  -0.164
REMARK UNBOUND:                -0.164
REMARK  1 active torsions:
REMARK  status: ('A' for Active; 'I' for Inactive)
REMARK    1  A    between atoms: C10_13  and  C11_14 
ROOT
ATOM      1  C1  LG1 d5015      36.445  33.690  43.726  0.00  0.00     0.018 C 
ATOM      2  C2  LG1 d5015      36.820  34.146  42.364  0.00  0.00     0.193 C 
ATOM      3  C3  LG1 d5015      38.217  33.851  41.982  0.00  0.00     0.049 A 
ATOM      4  C4  LG1 d5015      38.728  34.326  40.773  0.00  0.00     0.037 A 
ATOM      5  C5  LG1 d5015      40.029  33.992  40.393  0.00  0.00     0.012 A 
ATOM      6  C6  LG1 d5015      40.814  33.179  41.211  0.00  0.00     0.022 A 
ATOM      7  C7  LG1 d5015      40.301  32.701  42.418  0.00  0.00     0.039 A 
ATOM      8  C8  LG1 d5015      39.009  33.050  42.814  0.00  0.00     0.083 A 
ATOM      9  O1  LG1 d5015      38.563  32.533  44.001  0.00  0.00    -0.346 OA
ATOM     10  C9  LG1 d5015      37.579  33.353  44.639  0.00  0.00     0.218 C 
ATOM     11 BR1  LG1 d5015      40.738  34.657  38.770  0.00  0.00    -0.051 Br
ATOM     12  O2  LG1 d5015      36.053  34.721  41.606  0.00  0.00    -0.287 OA
ATOM     13  C10 LG1 d5015      35.151  33.611  44.059  0.00  0.00     0.025 C 
ENDROOT
BRANCH  13  14
ATOM     14  C11 LG1 d5015      34.666  33.186  45.338  0.00  0.00    -0.029 A 
ATOM     15  C14 LG1 d5015      34.416  31.866  45.641  0.00  0.00     0.061 A 
ATOM     16  S1  LG1 d5015      33.848  31.672  47.244  0.00  0.00    -0.113 SA
ATOM     17  C13 LG1 d5015      33.935  33.356  47.537  0.00  0.00     0.050 A 
ATOM     18  C12 LG1 d5015      34.387  34.049  46.437  0.00  0.00     0.019 A 
ENDBRANCH  13  14
TORSDOF 1
ENDMDL
