REMARK INTER + INTRA:          -7.912
REMARK INTER:                  -7.757
REMARK INTRA:                  -0.155
REMARK UNBOUND:                -0.164
REMARK  1 active torsions:
REMARK  status: ('A' for Active; 'I' for Inactive)
REMARK    1  A    between atoms: C10_13  and  C11_14 
ROOT
ATOM      1  C1  LG1 d5015      36.645  33.446  44.229  0.00  0.00     0.018 C 
ATOM      2  C2  LG1 d5015      37.934  33.854  43.616  0.00  0.00     0.193 C 
ATOM      3  C3  LG1 d5015      37.910  33.939  42.141  0.00  0.00     0.049 A 
ATOM      4  C4  LG1 d5015      39.087  34.203  41.436  0.00  0.00     0.037 A 
ATOM      5  C5  LG1 d5015      39.045  34.342  40.048  0.00  0.00     0.012 A 
ATOM      6  C6  LG1 d5015      37.833  34.229  39.366  0.00  0.00     0.022 A 
ATOM      7  C7  LG1 d5015      36.657  33.969  40.072  0.00  0.00     0.039 A 
ATOM      8  C8  LG1 d5015      36.696  33.807  41.457  0.00  0.00     0.083 A 
ATOM      9  O1  LG1 d5015      35.503  33.571  42.088  0.00  0.00    -0.346 OA
ATOM     10  C9  LG1 d5015      35.646  32.830  43.304  0.00  0.00     0.218 C 
ATOM     11 BR1  LG1 d5015      40.639  34.668  39.084  0.00  0.00    -0.051 Br
ATOM     12  O2  LG1 d5015      38.943  34.101  44.261  0.00  0.00    -0.287 OA
ATOM     13  C10 LG1 d5015      36.449  33.640  45.539  0.00  0.00     0.025 C 
ENDROOT
BRANCH  13  14
ATOM     14  C11 LG1 d5015      35.252  33.290  46.242  0.00  0.00    -0.029 A 
ATOM     15  C14 LG1 d5015      35.036  32.040  46.776  0.00  0.00     0.061 A 
ATOM     16  S1  LG1 d5015      33.517  31.928  47.556  0.00  0.00    -0.113 SA
ATOM     17  C13 LG1 d5015      33.142  33.555  47.181  0.00  0.00     0.050 A 
ATOM     18  C12 LG1 d5015      34.154  34.169  46.477  0.00  0.00     0.019 A 
ENDBRANCH  13  14
TORSDOF 1
ENDMDL
