REMARK INTER + INTRA:          -7.298
REMARK INTER:                  -7.130
REMARK INTRA:                  -0.168
REMARK UNBOUND:                -0.018
REMARK  1 active torsions:
REMARK  status: ('A' for Active; 'I' for Inactive)
REMARK    1  A    between atoms: C10_13  and  C11_14 
ROOT
ATOM      1  C1  LG1 d5015      36.480  33.655  43.870  0.00  0.00     0.018 C 
ATOM      2  C2  LG1 d5015      36.881  34.155  42.531  0.00  0.00     0.193 C 
ATOM      3  C3  LG1 d5015      38.259  33.797  42.132  0.00  0.00     0.049 A 
ATOM      4  C4  LG1 d5015      38.797  34.300  40.945  0.00  0.00     0.037 A 
ATOM      5  C5  LG1 d5015      40.076  33.910  40.546  0.00  0.00     0.012 A 
ATOM      6  C6  LG1 d5015      40.812  33.013  41.322  0.00  0.00     0.022 A 
ATOM      7  C7  LG1 d5015      40.272  32.508  42.506  0.00  0.00     0.039 A 
ATOM      8  C8  LG1 d5015      39.003  32.912  42.921  0.00  0.00     0.083 A 
ATOM      9  O1  LG1 d5015      38.527  32.365  44.084  0.00  0.00    -0.346 OA
ATOM     10  C9  LG1 d5015      37.592  33.209  44.763  0.00  0.00     0.218 C 
ATOM     11 BR1  LG1 d5015      40.823  34.611  38.956  0.00  0.00    -0.051 Br
ATOM     12  O2  LG1 d5015      36.149  34.809  41.804  0.00  0.00    -0.287 OA
ATOM     13  C10 LG1 d5015      35.184  33.635  44.202  0.00  0.00     0.025 C 
ENDROOT
BRANCH  13  14
ATOM     14  C11 LG1 d5015      34.674  33.177  45.460  0.00  0.00    -0.029 A 
ATOM     15  C14 LG1 d5015      34.321  31.867  45.690  0.00  0.00     0.061 A 
ATOM     16  S1  LG1 d5015      33.749  31.627  47.286  0.00  0.00    -0.113 SA
ATOM     17  C13 LG1 d5015      33.973  33.279  47.674  0.00  0.00     0.050 A 
ATOM     18  C12 LG1 d5015      34.473  33.995  46.610  0.00  0.00     0.019 A 
ENDBRANCH  13  14
TORSDOF 1
ENDMDL
