REMARK INTER + INTRA:          -5.932
REMARK INTER:                  -5.925
REMARK INTRA:                  -0.007
REMARK UNBOUND:                 0.613
REMARK  1 active torsions:
REMARK  status: ('A' for Active; 'I' for Inactive)
REMARK    1  A    between atoms: C10_13  and  C11_14 
ROOT
ATOM      1  C1  LG1 d5015      37.463  34.099  43.117  0.00  0.00     0.018 C 
ATOM      2  C2  LG1 d5015      36.857  34.472  44.420  0.00  0.00     0.193 C 
ATOM      3  C3  LG1 d5015      35.813  33.541  44.899  0.00  0.00     0.049 A 
ATOM      4  C4  LG1 d5015      35.087  33.837  46.054  0.00  0.00     0.037 A 
ATOM      5  C5  LG1 d5015      34.147  32.924  46.533  0.00  0.00     0.012 A 
ATOM      6  C6  LG1 d5015      33.938  31.715  45.868  0.00  0.00     0.022 A 
ATOM      7  C7  LG1 d5015      34.667  31.418  44.715  0.00  0.00     0.039 A 
ATOM      8  C8  LG1 d5015      35.593  32.336  44.220  0.00  0.00     0.083 A 
ATOM      9  O1  LG1 d5015      36.285  31.974  43.095  0.00  0.00    -0.346 OA
ATOM     10  C9  LG1 d5015      36.710  33.092  42.309  0.00  0.00     0.218 C 
ATOM     11 BR1  LG1 d5015      33.138  33.333  48.079  0.00  0.00    -0.051 Br
ATOM     12  O2  LG1 d5015      37.178  35.464  45.058  0.00  0.00    -0.287 OA
ATOM     13  C10 LG1 d5015      38.614  34.668  42.741  0.00  0.00     0.025 C 
ENDROOT
BRANCH  13  14
ATOM     14  C11 LG1 d5015      39.295  34.390  41.512  0.00  0.00    -0.029 A 
ATOM     15  C14 LG1 d5015      38.807  34.775  40.284  0.00  0.00     0.061 A 
ATOM     16  S1  LG1 d5015      39.842  34.303  39.005  0.00  0.00    -0.113 SA
ATOM     17  C13 LG1 d5015      40.947  33.580  40.093  0.00  0.00     0.050 A 
ATOM     18  C12 LG1 d5015      40.535  33.698  41.402  0.00  0.00     0.019 A 
ENDBRANCH  13  14
TORSDOF 1
ENDMDL
