REMARK INTER + INTRA:          -5.922
REMARK INTER:                  -5.904
REMARK INTRA:                  -0.018
REMARK UNBOUND:                -0.018
REMARK  1 active torsions:
REMARK  status: ('A' for Active; 'I' for Inactive)
REMARK    1  A    between atoms: C10_13  and  C11_14 
ROOT
ATOM      1  C1  LG1 d5015      37.501  34.064  43.049  0.00  0.00     0.018 C 
ATOM      2  C2  LG1 d5015      36.895  34.429  44.354  0.00  0.00     0.193 C 
ATOM      3  C3  LG1 d5015      35.873  33.479  44.841  0.00  0.00     0.049 A 
ATOM      4  C4  LG1 d5015      35.147  33.764  45.999  0.00  0.00     0.037 A 
ATOM      5  C5  LG1 d5015      34.228  32.834  46.485  0.00  0.00     0.012 A 
ATOM      6  C6  LG1 d5015      34.040  31.619  45.825  0.00  0.00     0.022 A 
ATOM      7  C7  LG1 d5015      34.769  31.333  44.670  0.00  0.00     0.039 A 
ATOM      8  C8  LG1 d5015      35.673  32.268  44.166  0.00  0.00     0.083 A 
ATOM      9  O1  LG1 d5015      36.367  31.916  43.039  0.00  0.00    -0.346 OA
ATOM     10  C9  LG1 d5015      36.765  33.041  42.248  0.00  0.00     0.218 C 
ATOM     11 BR1  LG1 d5015      33.219  33.227  48.036  0.00  0.00    -0.051 Br
ATOM     12  O2  LG1 d5015      37.200  35.429  44.987  0.00  0.00    -0.287 OA
ATOM     13  C10 LG1 d5015      38.639  34.656  42.665  0.00  0.00     0.025 C 
ENDROOT
BRANCH  13  14
ATOM     14  C11 LG1 d5015      39.318  34.387  41.433  0.00  0.00    -0.029 A 
ATOM     15  C14 LG1 d5015      38.825  34.774  40.208  0.00  0.00     0.061 A 
ATOM     16  S1  LG1 d5015      39.859  34.313  38.924  0.00  0.00    -0.113 SA
ATOM     17  C13 LG1 d5015      40.973  33.594  40.006  0.00  0.00     0.050 A 
ATOM     18  C12 LG1 d5015      40.564  33.705  41.316  0.00  0.00     0.019 A 
ENDBRANCH  13  14
TORSDOF 1
ENDMDL
