REMARK INTER + INTRA:          -7.888
REMARK INTER:                  -7.683
REMARK INTRA:                  -0.205
REMARK UNBOUND:                -0.202
REMARK  1 active torsions:
REMARK  status: ('A' for Active; 'I' for Inactive)
REMARK    1  A    between atoms: C1_1  and  N1_10 
ROOT
ATOM      1  C1  LG1 d5015      37.477  33.649  42.609  0.00  0.00     0.056 A 
ATOM      2  C2  LG1 d5015      36.477  32.683  42.511  0.00  0.00    -0.033 A 
ATOM      3  C3  LG1 d5015      35.678  32.391  43.618  0.00  0.00     0.028 A 
ATOM      4  C4  LG1 d5015      35.880  33.066  44.821  0.00  0.00     0.012 A 
ATOM      5  C5  LG1 d5015      36.882  34.034  44.919  0.00  0.00     0.028 A 
ATOM      6  C6  LG1 d5015      37.679  34.324  43.813  0.00  0.00    -0.033 A 
ATOM      7  C7  LG1 d5015      38.744  35.365  43.949  0.00  0.00     0.050 C 
ATOM      8 BR1  LG1 d5015      34.798  32.670  46.320  0.00  0.00    -0.051 Br
ATOM      9  C8  LG1 d5015      36.236  31.944  41.235  0.00  0.00     0.050 C 
ENDROOT
BRANCH   1  10
ATOM     10  N1  LG1 d5015      38.299  33.950  41.471  0.00  0.00    -0.265 N 
ATOM     11  C11 LG1 d5015      39.531  33.348  41.214  0.00  0.00     0.148 C 
ATOM     12  S2  LG1 d5015      40.265  32.030  41.941  0.00  0.00    -0.052 SA
ATOM     13  S1  LG1 d5015      40.285  34.129  39.828  0.00  0.00    -0.090 SA
ATOM     14  C10 LG1 d5015      38.816  35.064  39.400  0.00  0.00     0.185 C 
ATOM     15  C9  LG1 d5015      37.867  34.919  40.553  0.00  0.00     0.239 C 
ATOM     16  O1  LG1 d5015      36.857  35.616  40.624  0.00  0.00    -0.272 OA
ENDBRANCH   1  10
TORSDOF 1
ENDMDL
