REMARK INTER + INTRA:          -7.590
REMARK INTER:                  -7.480
REMARK INTRA:                  -0.110
REMARK UNBOUND:                -0.018
REMARK  1 active torsions:
REMARK  status: ('A' for Active; 'I' for Inactive)
REMARK    1  A    between atoms: C10_13  and  C11_14 
ROOT
ATOM      1  C1  LG1 d5015      37.448  33.372  42.159  0.00  0.00     0.018 C 
ATOM      2  C2  LG1 d5015      36.380  32.565  42.800  0.00  0.00     0.193 C 
ATOM      3  C3  LG1 d5015      36.021  33.000  44.167  0.00  0.00     0.049 A 
ATOM      4  C4  LG1 d5015      35.111  32.258  44.921  0.00  0.00     0.037 A 
ATOM      5  C5  LG1 d5015      34.732  32.709  46.187  0.00  0.00     0.012 A 
ATOM      6  C6  LG1 d5015      35.251  33.900  46.694  0.00  0.00     0.022 A 
ATOM      7  C7  LG1 d5015      36.159  34.644  45.937  0.00  0.00     0.039 A 
ATOM      8  C8  LG1 d5015      36.557  34.187  44.681  0.00  0.00     0.083 A 
ATOM      9  O1  LG1 d5015      37.437  34.974  43.985  0.00  0.00    -0.346 OA
ATOM     10  C9  LG1 d5015      38.256  34.234  43.073  0.00  0.00     0.218 C 
ATOM     11 BR1  LG1 d5015      33.523  31.692  47.227  0.00  0.00    -0.051 Br
ATOM     12  O2  LG1 d5015      35.830  31.616  42.261  0.00  0.00    -0.287 OA
ATOM     13  C10 LG1 d5015      37.633  33.285  40.836  0.00  0.00     0.025 C 
ENDROOT
BRANCH  13  14
ATOM     14  C11 LG1 d5015      38.627  34.011  40.105  0.00  0.00    -0.029 A 
ATOM     15  C14 LG1 d5015      38.332  35.113  39.335  0.00  0.00     0.061 A 
ATOM     16  S1  LG1 d5015      39.726  35.765  38.586  0.00  0.00    -0.113 SA
ATOM     17  C13 LG1 d5015      40.731  34.573  39.292  0.00  0.00     0.050 A 
ATOM     18  C12 LG1 d5015      40.017  33.699  40.081  0.00  0.00     0.019 A 
ENDBRANCH  13  14
TORSDOF 1
ENDMDL
