MODEL 1
REMARK VINA RESULT:    -7.326      0.000      0.000
REMARK INTER + INTRA:          -7.956
REMARK INTER:                  -7.800
REMARK INTRA:                  -0.156
REMARK UNBOUND:                -0.202
REMARK  1 active torsions:
REMARK  status: ('A' for Active; 'I' for Inactive)
REMARK    1  A    between atoms: C1_1  and  N1_10 
ROOT
ATOM      1  C1  LG1 d5015      37.615  33.537  42.836  0.00  0.00     0.056 A 
ATOM      2  C2  LG1 d5015      36.591  32.600  42.698  0.00  0.00    -0.033 A 
ATOM      3  C3  LG1 d5015      35.665  32.424  43.727  0.00  0.00     0.028 A 
ATOM      4  C4  LG1 d5015      35.762  33.184  44.892  0.00  0.00     0.012 A 
ATOM      5  C5  LG1 d5015      36.789  34.120  45.030  0.00  0.00     0.028 A 
ATOM      6  C6  LG1 d5015      37.714  34.296  44.002  0.00  0.00    -0.033 A 
ATOM      7  C7  LG1 d5015      38.801  35.306  44.179  0.00  0.00     0.050 C 
ATOM      8 BR1  LG1 d5015      34.508  32.944  46.285  0.00  0.00    -0.051 Br
ATOM      9  C8  LG1 d5015      36.459  31.773  41.461  0.00  0.00     0.050 C 
ENDROOT
BRANCH   1  10
ATOM     10  N1  LG1 d5015      38.568  33.719  41.778  0.00  0.00    -0.265 N 
ATOM     11  C11 LG1 d5015      38.346  34.517  40.654  0.00  0.00     0.148 C 
ATOM     12  S2  LG1 d5015      37.120  35.611  40.327  0.00  0.00    -0.052 SA
ATOM     13  S1  LG1 d5015      39.682  34.320  39.526  0.00  0.00    -0.090 SA
ATOM     14  C10 LG1 d5015      40.691  33.402  40.688  0.00  0.00     0.185 C 
ATOM     15  C9  LG1 d5015      39.799  33.052  41.844  0.00  0.00     0.239 C 
ATOM     16  O1  LG1 d5015      40.169  32.253  42.700  0.00  0.00    -0.272 OA
ENDBRANCH   1  10
TORSDOF 1
ENDMDL
MODEL 2
REMARK VINA RESULT:    -7.306      0.076      2.153
REMARK INTER + INTRA:          -7.936
REMARK INTER:                  -7.784
REMARK INTRA:                  -0.152
REMARK UNBOUND:                -0.202
REMARK  1 active torsions:
REMARK  status: ('A' for Active; 'I' for Inactive)
REMARK    1  A    between atoms: C1_1  and  N1_10 
ROOT
ATOM      1  C1  LG1 d5015      37.621  33.534  42.827  0.00  0.00     0.056 A 
ATOM      2  C2  LG1 d5015      37.718  34.293  43.993  0.00  0.00    -0.033 A 
ATOM      3  C3  LG1 d5015      36.815  34.089  45.036  0.00  0.00     0.028 A 
ATOM      4  C4  LG1 d5015      35.814  33.125  44.914  0.00  0.00     0.012 A 
ATOM      5  C5  LG1 d5015      35.716  32.365  43.747  0.00  0.00     0.028 A 
ATOM      6  C6  LG1 d5015      36.619  32.570  42.705  0.00  0.00    -0.033 A 
ATOM      7  C7  LG1 d5015      36.489  31.741  41.468  0.00  0.00     0.050 C 
ATOM      8 BR1  LG1 d5015      34.590  32.850  46.327  0.00  0.00    -0.051 Br
ATOM      9  C8  LG1 d5015      38.780  35.332  44.153  0.00  0.00     0.050 C 
ENDROOT
BRANCH   1  10
ATOM     10  N1  LG1 d5015      38.551  33.743  41.754  0.00  0.00    -0.265 N 
ATOM     11  C11 LG1 d5015      38.286  34.527  40.631  0.00  0.00     0.148 C 
ATOM     12  S2  LG1 d5015      37.020  35.578  40.317  0.00  0.00    -0.052 SA
ATOM     13  S1  LG1 d5015      39.611  34.369  39.483  0.00  0.00    -0.090 SA
ATOM     14  C10 LG1 d5015      40.667  33.490  40.634  0.00  0.00     0.185 C 
ATOM     15  C9  LG1 d5015      39.805  33.117  41.805  0.00  0.00     0.239 C 
ATOM     16  O1  LG1 d5015      40.214  32.334  42.659  0.00  0.00    -0.272 OA
ENDBRANCH   1  10
TORSDOF 1
ENDMDL
MODEL 3
REMARK VINA RESULT:    -7.261      1.638      2.138
REMARK INTER + INTRA:          -7.888
REMARK INTER:                  -7.683
REMARK INTRA:                  -0.205
REMARK UNBOUND:                -0.202
REMARK  1 active torsions:
REMARK  status: ('A' for Active; 'I' for Inactive)
REMARK    1  A    between atoms: C1_1  and  N1_10 
ROOT
ATOM      1  C1  LG1 d5015      37.477  33.649  42.609  0.00  0.00     0.056 A 
ATOM      2  C2  LG1 d5015      36.477  32.683  42.511  0.00  0.00    -0.033 A 
ATOM      3  C3  LG1 d5015      35.678  32.391  43.618  0.00  0.00     0.028 A 
ATOM      4  C4  LG1 d5015      35.880  33.066  44.821  0.00  0.00     0.012 A 
ATOM      5  C5  LG1 d5015      36.882  34.034  44.919  0.00  0.00     0.028 A 
ATOM      6  C6  LG1 d5015      37.679  34.324  43.813  0.00  0.00    -0.033 A 
ATOM      7  C7  LG1 d5015      38.744  35.365  43.949  0.00  0.00     0.050 C 
ATOM      8 BR1  LG1 d5015      34.798  32.670  46.320  0.00  0.00    -0.051 Br
ATOM      9  C8  LG1 d5015      36.236  31.944  41.235  0.00  0.00     0.050 C 
ENDROOT
BRANCH   1  10
ATOM     10  N1  LG1 d5015      38.299  33.950  41.471  0.00  0.00    -0.265 N 
ATOM     11  C11 LG1 d5015      39.531  33.348  41.214  0.00  0.00     0.148 C 
ATOM     12  S2  LG1 d5015      40.265  32.030  41.941  0.00  0.00    -0.052 SA
ATOM     13  S1  LG1 d5015      40.285  34.129  39.828  0.00  0.00    -0.090 SA
ATOM     14  C10 LG1 d5015      38.816  35.064  39.400  0.00  0.00     0.185 C 
ATOM     15  C9  LG1 d5015      37.867  34.919  40.553  0.00  0.00     0.239 C 
ATOM     16  O1  LG1 d5015      36.857  35.616  40.624  0.00  0.00    -0.272 OA
ENDBRANCH   1  10
TORSDOF 1
ENDMDL
MODEL 4
REMARK VINA RESULT:    -7.254      1.641      3.034
REMARK INTER + INTRA:          -7.880
REMARK INTER:                  -7.678
REMARK INTRA:                  -0.202
REMARK UNBOUND:                -0.202
REMARK  1 active torsions:
REMARK  status: ('A' for Active; 'I' for Inactive)
REMARK    1  A    between atoms: C1_1  and  N1_10 
ROOT
ATOM      1  C1  LG1 d5015      37.477  33.656  42.601  0.00  0.00     0.056 A 
ATOM      2  C2  LG1 d5015      37.690  34.323  43.807  0.00  0.00    -0.033 A 
ATOM      3  C3  LG1 d5015      36.897  34.027  44.916  0.00  0.00     0.028 A 
ATOM      4  C4  LG1 d5015      35.892  33.066  44.820  0.00  0.00     0.012 A 
ATOM      5  C5  LG1 d5015      35.678  32.399  43.612  0.00  0.00     0.028 A 
ATOM      6  C6  LG1 d5015      36.471  32.694  42.504  0.00  0.00    -0.033 A 
ATOM      7  C7  LG1 d5015      36.219  31.964  41.225  0.00  0.00     0.050 C 
ATOM      8 BR1  LG1 d5015      34.817  32.667  46.322  0.00  0.00    -0.051 Br
ATOM      9  C8  LG1 d5015      38.760  35.357  43.942  0.00  0.00     0.050 C 
ENDROOT
BRANCH   1  10
ATOM     10  N1  LG1 d5015      38.294  33.958  41.460  0.00  0.00    -0.265 N 
ATOM     11  C11 LG1 d5015      39.526  33.358  41.198  0.00  0.00     0.148 C 
ATOM     12  S2  LG1 d5015      40.265  32.040  41.922  0.00  0.00    -0.052 SA
ATOM     13  S1  LG1 d5015      40.273  34.140  39.810  0.00  0.00    -0.090 SA
ATOM     14  C10 LG1 d5015      38.802  35.073  39.387  0.00  0.00     0.185 C 
ATOM     15  C9  LG1 d5015      37.857  34.926  40.544  0.00  0.00     0.239 C 
ATOM     16  O1  LG1 d5015      36.847  35.621  40.619  0.00  0.00    -0.272 OA
ENDBRANCH   1  10
TORSDOF 1
ENDMDL
MODEL 5
REMARK VINA RESULT:    -6.538      3.991      5.683
REMARK INTER + INTRA:          -7.123
REMARK INTER:                  -6.921
REMARK INTRA:                  -0.202
REMARK UNBOUND:                -0.202
REMARK  1 active torsions:
REMARK  status: ('A' for Active; 'I' for Inactive)
REMARK    1  A    between atoms: C1_1  and  N1_10 
ROOT
ATOM      1  C1  LG1 d5015      37.368  33.264  43.859  0.00  0.00     0.056 A 
ATOM      2  C2  LG1 d5015      38.460  34.114  44.033  0.00  0.00    -0.033 A 
ATOM      3  C3  LG1 d5015      39.391  34.272  43.005  0.00  0.00     0.028 A 
ATOM      4  C4  LG1 d5015      39.230  33.580  41.806  0.00  0.00     0.012 A 
ATOM      5  C5  LG1 d5015      38.137  32.728  41.633  0.00  0.00     0.028 A 
ATOM      6  C6  LG1 d5015      37.208  32.571  42.660  0.00  0.00    -0.033 A 
ATOM      7  C7  LG1 d5015      36.048  31.652  42.445  0.00  0.00     0.050 C 
ATOM      8 BR1  LG1 d5015      40.492  33.792  40.415  0.00  0.00    -0.051 Br
ATOM      9  C8  LG1 d5015      38.658  34.871  45.306  0.00  0.00     0.050 C 
ENDROOT
BRANCH   1  10
ATOM     10  N1  LG1 d5015      36.409  33.103  44.916  0.00  0.00    -0.265 N 
ATOM     11  C11 LG1 d5015      36.462  32.089  45.872  0.00  0.00     0.148 C 
ATOM     12  S2  LG1 d5015      37.677  30.988  46.218  0.00  0.00    -0.052 SA
ATOM     13  S1  LG1 d5015      35.009  32.144  46.863  0.00  0.00    -0.090 SA
ATOM     14  C10 LG1 d5015      34.465  33.716  46.196  0.00  0.00     0.185 C 
ATOM     15  C9  LG1 d5015      35.333  33.997  45.004  0.00  0.00     0.239 C 
ATOM     16  O1  LG1 d5015      35.057  34.911  44.231  0.00  0.00    -0.272 OA
ENDBRANCH   1  10
TORSDOF 1
ENDMDL
