REMARK INTER + INTRA:         -10.601
REMARK INTER:                 -10.119
REMARK INTRA:                  -0.482
REMARK UNBOUND:                -0.541
REMARK  2 active torsions:
REMARK  status: ('A' for Active; 'I' for Inactive)
REMARK    1  A    between atoms: C1_1  and  N1_15 
REMARK    2  A    between atoms: C7_9  and  C4_4 
ROOT
ATOM      1  C1  LG1 d5015      37.747  33.406  42.628  0.00  0.00     0.141 A 
ATOM      2  C2  LG1 d5015      37.628  34.249  43.733  0.00  0.00     0.187 A 
ATOM      3  C3  LG1 d5015      36.751  33.924  44.767  0.00  0.00     0.175 A 
ATOM      4  C4  LG1 d5015      35.992  32.757  44.697  0.00  0.00     0.131 A 
ATOM      5  C5  LG1 d5015      36.109  31.914  43.593  0.00  0.00     0.175 A 
ATOM      6  C6  LG1 d5015      36.987  32.238  42.559  0.00  0.00     0.187 A 
ATOM      7  F1  LG1 d5015      37.090  31.418  41.503  0.00  0.00    -0.200 F 
ATOM      8  F2  LG1 d5015      35.383  30.789  43.517  0.00  0.00    -0.202 F 
ATOM      9  F6  LG1 d5015      36.645  34.742  45.825  0.00  0.00    -0.202 F 
ATOM     10  F7  LG1 d5015      38.352  35.375  43.813  0.00  0.00    -0.200 F 
ENDROOT
BRANCH   1  11
ATOM     11  N1  LG1 d5015      38.616  33.727  41.602  0.00  0.00    -0.232 N 
ATOM     12  N2  LG1 d5015      38.238  34.606  40.657  0.00  0.00    -0.172 NA
ATOM     13  C10 LG1 d5015      39.303  34.665  39.854  0.00  0.00     0.053 A 
ATOM     14  C9  LG1 d5015      40.353  33.830  40.282  0.00  0.00     0.055 A 
ATOM     15  C11 LG1 d5015      39.280  35.543  38.672  0.00  0.00     0.072 C 
ATOM     16  C8  LG1 d5015      39.874  33.234  41.423  0.00  0.00     0.035 A 
ATOM     17  C12 LG1 d5015      40.506  32.258  42.332  0.00  0.00     0.070 C 
ENDBRANCH   1  11
BRANCH   4  18
ATOM     18  C7  LG1 d5015      35.053  32.410  45.804  0.00  0.00     0.423 C 
ATOM     19  F4  LG1 d5015      33.960  31.702  45.393  0.00  0.00    -0.166 F 
ATOM     20  F3  LG1 d5015      34.547  33.500  46.453  0.00  0.00    -0.166 F 
ATOM     21  F5  LG1 d5015      35.641  31.649  46.772  0.00  0.00    -0.166 F 
ENDBRANCH   4  18
TORSDOF 2
ENDMDL
