MODEL 1
REMARK VINA RESULT:    -7.341      0.000      0.000
REMARK INTER + INTRA:          -7.966
REMARK INTER:                  -7.815
REMARK INTRA:                  -0.151
REMARK UNBOUND:                -0.195
REMARK  1 active torsions:
REMARK  status: ('A' for Active; 'I' for Inactive)
REMARK    1  A    between atoms: C1_1  and  N1_10 
ROOT
ATOM      1  C1  LG1 d5015      37.600  33.517  42.832  0.00  0.00     0.056 A 
ATOM      2  C2  LG1 d5015      37.718  34.268  44.001  0.00  0.00    -0.033 A 
ATOM      3  C3  LG1 d5015      36.810  34.081  45.044  0.00  0.00     0.028 A 
ATOM      4  C4  LG1 d5015      35.786  33.143  44.919  0.00  0.00     0.012 A 
ATOM      5  C5  LG1 d5015      35.668  32.392  43.748  0.00  0.00     0.028 A 
ATOM      6  C6  LG1 d5015      36.575  32.579  42.706  0.00  0.00    -0.033 A 
ATOM      7  C7  LG1 d5015      36.423  31.760  41.465  0.00  0.00     0.050 C 
ATOM      8 BR1  LG1 d5015      34.556  32.892  46.332  0.00  0.00    -0.051 Br
ATOM      9  C8  LG1 d5015      38.805  35.280  44.165  0.00  0.00     0.050 C 
ENDROOT
BRANCH   1  10
ATOM     10  N1  LG1 d5015      38.534  33.708  41.759  0.00  0.00    -0.265 N 
ATOM     11  C11 LG1 d5015      38.289  34.505  40.641  0.00  0.00     0.148 C 
ATOM     12  S2  LG1 d5015      37.050  35.592  40.335  0.00  0.00    -0.052 SA
ATOM     13  S1  LG1 d5015      39.607  34.321  39.490  0.00  0.00    -0.090 SA
ATOM     14  C10 LG1 d5015      40.642  33.406  40.634  0.00  0.00     0.185 C 
ATOM     15  C9  LG1 d5015      39.770  33.049  41.804  0.00  0.00     0.239 C 
ATOM     16  O1  LG1 d5015      40.160  32.249  42.652  0.00  0.00    -0.272 OA
ENDBRANCH   1  10
TORSDOF 1
ENDMDL
MODEL 2
REMARK VINA RESULT:    -7.323      0.055      2.152
REMARK INTER + INTRA:          -7.946
REMARK INTER:                  -7.803
REMARK INTRA:                  -0.144
REMARK UNBOUND:                -0.195
REMARK  1 active torsions:
REMARK  status: ('A' for Active; 'I' for Inactive)
REMARK    1  A    between atoms: C1_1  and  N1_10 
ROOT
ATOM      1  C1  LG1 d5015      37.629  33.539  42.823  0.00  0.00     0.056 A 
ATOM      2  C2  LG1 d5015      36.621  32.584  42.691  0.00  0.00    -0.033 A 
ATOM      3  C3  LG1 d5015      35.706  32.389  43.726  0.00  0.00     0.028 A 
ATOM      4  C4  LG1 d5015      35.800  33.148  44.892  0.00  0.00     0.012 A 
ATOM      5  C5  LG1 d5015      36.810  34.103  45.025  0.00  0.00     0.028 A 
ATOM      6  C6  LG1 d5015      37.724  34.297  43.990  0.00  0.00    -0.033 A 
ATOM      7  C7  LG1 d5015      38.794  35.327  44.160  0.00  0.00     0.050 C 
ATOM      8 BR1  LG1 d5015      34.562  32.881  46.296  0.00  0.00    -0.051 Br
ATOM      9  C8  LG1 d5015      36.494  31.758  41.452  0.00  0.00     0.050 C 
ENDROOT
BRANCH   1  10
ATOM     10  N1  LG1 d5015      38.570  33.741  41.757  0.00  0.00    -0.265 N 
ATOM     11  C11 LG1 d5015      38.320  34.527  40.632  0.00  0.00     0.148 C 
ATOM     12  S2  LG1 d5015      37.064  35.588  40.307  0.00  0.00    -0.052 SA
ATOM     13  S1  LG1 d5015      39.653  34.361  39.495  0.00  0.00    -0.090 SA
ATOM     14  C10 LG1 d5015      40.694  33.474  40.655  0.00  0.00     0.185 C 
ATOM     15  C9  LG1 d5015      39.818  33.107  41.818  0.00  0.00     0.239 C 
ATOM     16  O1  LG1 d5015      40.215  32.320  42.675  0.00  0.00    -0.272 OA
ENDBRANCH   1  10
TORSDOF 1
ENDMDL
MODEL 3
REMARK VINA RESULT:    -7.271      1.640      3.028
REMARK INTER + INTRA:          -7.891
REMARK INTER:                  -7.684
REMARK INTRA:                  -0.207
REMARK UNBOUND:                -0.195
REMARK  1 active torsions:
REMARK  status: ('A' for Active; 'I' for Inactive)
REMARK    1  A    between atoms: C1_1  and  N1_10 
ROOT
ATOM      1  C1  LG1 d5015      37.451  33.646  42.617  0.00  0.00     0.056 A 
ATOM      2  C2  LG1 d5015      36.456  32.675  42.506  0.00  0.00    -0.033 A 
ATOM      3  C3  LG1 d5015      35.645  32.379  43.602  0.00  0.00     0.028 A 
ATOM      4  C4  LG1 d5015      35.829  33.054  44.808  0.00  0.00     0.012 A 
ATOM      5  C5  LG1 d5015      36.826  34.026  44.919  0.00  0.00     0.028 A 
ATOM      6  C6  LG1 d5015      37.636  34.320  43.824  0.00  0.00    -0.033 A 
ATOM      7  C7  LG1 d5015      38.694  35.365  43.973  0.00  0.00     0.050 C 
ATOM      8 BR1  LG1 d5015      34.731  32.652  46.294  0.00  0.00    -0.051 Br
ATOM      9  C8  LG1 d5015      36.234  31.936  41.226  0.00  0.00     0.050 C 
ENDROOT
BRANCH   1  10
ATOM     10  N1  LG1 d5015      38.285  33.951  41.489  0.00  0.00    -0.265 N 
ATOM     11  C11 LG1 d5015      39.515  33.344  41.238  0.00  0.00     0.148 C 
ATOM     12  S2  LG1 d5015      40.235  32.014  41.960  0.00  0.00    -0.052 SA
ATOM     13  S1  LG1 d5015      40.287  34.131  39.866  0.00  0.00    -0.090 SA
ATOM     14  C10 LG1 d5015      38.829  35.079  39.432  0.00  0.00     0.185 C 
ATOM     15  C9  LG1 d5015      37.867  34.930  40.576  0.00  0.00     0.239 C 
ATOM     16  O1  LG1 d5015      36.862  35.634  40.643  0.00  0.00    -0.272 OA
ENDBRANCH   1  10
TORSDOF 1
ENDMDL
MODEL 4
REMARK VINA RESULT:    -7.271      1.638      2.133
REMARK INTER + INTRA:          -7.891
REMARK INTER:                  -7.687
REMARK INTRA:                  -0.204
REMARK UNBOUND:                -0.195
REMARK  1 active torsions:
REMARK  status: ('A' for Active; 'I' for Inactive)
REMARK    1  A    between atoms: C1_1  and  N1_10 
ROOT
ATOM      1  C1  LG1 d5015      37.474  33.640  42.608  0.00  0.00     0.056 A 
ATOM      2  C2  LG1 d5015      37.684  34.313  43.811  0.00  0.00    -0.033 A 
ATOM      3  C3  LG1 d5015      36.889  34.022  44.920  0.00  0.00     0.028 A 
ATOM      4  C4  LG1 d5015      35.886  33.059  44.827  0.00  0.00     0.012 A 
ATOM      5  C5  LG1 d5015      35.676  32.385  43.621  0.00  0.00     0.028 A 
ATOM      6  C6  LG1 d5015      36.470  32.677  42.514  0.00  0.00    -0.033 A 
ATOM      7  C7  LG1 d5015      36.221  31.939  41.238  0.00  0.00     0.050 C 
ATOM      8 BR1  LG1 d5015      34.808  32.666  46.329  0.00  0.00    -0.051 Br
ATOM      9  C8  LG1 d5015      38.752  35.350  43.943  0.00  0.00     0.050 C 
ENDROOT
BRANCH   1  10
ATOM     10  N1  LG1 d5015      38.293  33.938  41.466  0.00  0.00    -0.265 N 
ATOM     11  C11 LG1 d5015      39.523  33.333  41.206  0.00  0.00     0.148 C 
ATOM     12  S2  LG1 d5015      40.257  32.014  41.933  0.00  0.00    -0.052 SA
ATOM     13  S1  LG1 d5015      40.274  34.110  39.817  0.00  0.00    -0.090 SA
ATOM     14  C10 LG1 d5015      38.806  35.048  39.392  0.00  0.00     0.185 C 
ATOM     15  C9  LG1 d5015      37.860  34.905  40.550  0.00  0.00     0.239 C 
ATOM     16  O1  LG1 d5015      36.852  35.605  40.622  0.00  0.00    -0.272 OA
ENDBRANCH   1  10
TORSDOF 1
ENDMDL
MODEL 5
REMARK VINA RESULT:    -6.530      3.983      5.254
REMARK INTER + INTRA:          -7.107
REMARK INTER:                  -6.911
REMARK INTRA:                  -0.195
REMARK UNBOUND:                -0.195
REMARK  1 active torsions:
REMARK  status: ('A' for Active; 'I' for Inactive)
REMARK    1  A    between atoms: C1_1  and  N1_10 
ROOT
ATOM      1  C1  LG1 d5015      37.381  33.284  43.850  0.00  0.00     0.056 A 
ATOM      2  C2  LG1 d5015      38.478  34.126  44.027  0.00  0.00    -0.033 A 
ATOM      3  C3  LG1 d5015      39.401  34.296  42.994  0.00  0.00     0.028 A 
ATOM      4  C4  LG1 d5015      39.227  33.623  41.785  0.00  0.00     0.012 A 
ATOM      5  C5  LG1 d5015      38.129  32.779  41.609  0.00  0.00     0.028 A 
ATOM      6  C6  LG1 d5015      37.208  32.610  42.641  0.00  0.00    -0.033 A 
ATOM      7  C7  LG1 d5015      36.042  31.700  42.421  0.00  0.00     0.050 C 
ATOM      8 BR1  LG1 d5015      40.479  33.852  40.388  0.00  0.00    -0.051 Br
ATOM      9  C8  LG1 d5015      38.691  34.862  45.310  0.00  0.00     0.050 C 
ENDROOT
BRANCH   1  10
ATOM     10  N1  LG1 d5015      36.430  33.110  44.911  0.00  0.00    -0.265 N 
ATOM     11  C11 LG1 d5015      36.481  32.076  45.846  0.00  0.00     0.148 C 
ATOM     12  S2  LG1 d5015      37.688  30.955  46.158  0.00  0.00    -0.052 SA
ATOM     13  S1  LG1 d5015      35.039  32.125  46.852  0.00  0.00    -0.090 SA
ATOM     14  C10 LG1 d5015      34.504  33.716  46.222  0.00  0.00     0.185 C 
ATOM     15  C9  LG1 d5015      35.365  34.012  45.028  0.00  0.00     0.239 C 
ATOM     16  O1  LG1 d5015      35.090  34.945  44.276  0.00  0.00    -0.272 OA
ENDBRANCH   1  10
TORSDOF 1
ENDMDL
