REMARK INTER + INTRA:          -5.938
REMARK INTER:                  -5.935
REMARK INTRA:                  -0.003
REMARK UNBOUND:                -0.156
REMARK  1 active torsions:
REMARK  status: ('A' for Active; 'I' for Inactive)
REMARK    1  A    between atoms: C10_13  and  C11_14 
ROOT
ATOM      1  C1  LG1 d5015      37.492  34.074  43.073  0.00  0.00     0.018 C 
ATOM      2  C2  LG1 d5015      36.884  34.445  44.375  0.00  0.00     0.193 C 
ATOM      3  C3  LG1 d5015      35.846  33.508  44.856  0.00  0.00     0.049 A 
ATOM      4  C4  LG1 d5015      35.119  33.802  46.011  0.00  0.00     0.037 A 
ATOM      5  C5  LG1 d5015      34.183  32.884  46.491  0.00  0.00     0.012 A 
ATOM      6  C6  LG1 d5015      33.981  31.674  45.827  0.00  0.00     0.022 A 
ATOM      7  C7  LG1 d5015      34.712  31.379  44.674  0.00  0.00     0.039 A 
ATOM      8  C8  LG1 d5015      35.632  32.302  44.178  0.00  0.00     0.083 A 
ATOM      9  O1  LG1 d5015      36.326  31.942  43.053  0.00  0.00    -0.346 OA
ATOM     10  C9  LG1 d5015      36.745  33.062  42.266  0.00  0.00     0.218 C 
ATOM     11 BR1  LG1 d5015      33.172  33.289  48.037  0.00  0.00    -0.051 Br
ATOM     12  O2  LG1 d5015      37.200  35.439  45.013  0.00  0.00    -0.287 OA
ATOM     13  C10 LG1 d5015      38.640  34.649  42.696  0.00  0.00     0.025 C 
ENDROOT
BRANCH  13  14
ATOM     14  C11 LG1 d5015      39.322  34.373  41.467  0.00  0.00    -0.029 A 
ATOM     15  C14 LG1 d5015      38.827  34.746  40.237  0.00  0.00     0.061 A 
ATOM     16  S1  LG1 d5015      39.865  34.280  38.959  0.00  0.00    -0.113 SA
ATOM     17  C13 LG1 d5015      40.982  33.576  40.049  0.00  0.00     0.050 A 
ATOM     18  C12 LG1 d5015      40.571  33.695  41.358  0.00  0.00     0.019 A 
ENDBRANCH  13  14
TORSDOF 1
ENDMDL
