MODEL 1
REMARK VINA RESULT:    -7.383      0.000      0.000
REMARK INTER + INTRA:          -7.971
REMARK INTER:                  -7.821
REMARK INTRA:                  -0.150
REMARK UNBOUND:                -0.156
REMARK  1 active torsions:
REMARK  status: ('A' for Active; 'I' for Inactive)
REMARK    1  A    between atoms: C10_13  and  C11_14 
ROOT
ATOM      1  C1  LG1 d5015      36.668  33.443  44.252  0.00  0.00     0.018 C 
ATOM      2  C2  LG1 d5015      37.951  33.869  43.640  0.00  0.00     0.193 C 
ATOM      3  C3  LG1 d5015      37.926  33.960  42.165  0.00  0.00     0.049 A 
ATOM      4  C4  LG1 d5015      39.098  34.241  41.460  0.00  0.00     0.037 A 
ATOM      5  C5  LG1 d5015      39.053  34.385  40.073  0.00  0.00     0.012 A 
ATOM      6  C6  LG1 d5015      37.842  34.260  39.392  0.00  0.00     0.022 A 
ATOM      7  C7  LG1 d5015      36.670  33.984  40.097  0.00  0.00     0.039 A 
ATOM      8  C8  LG1 d5015      36.712  33.817  41.481  0.00  0.00     0.083 A 
ATOM      9  O1  LG1 d5015      35.523  33.564  42.112  0.00  0.00    -0.346 OA
ATOM     10  C9  LG1 d5015      35.675  32.819  43.325  0.00  0.00     0.218 C 
ATOM     11 BR1  LG1 d5015      40.643  34.734  39.109  0.00  0.00    -0.051 Br
ATOM     12  O2  LG1 d5015      38.958  34.125  44.285  0.00  0.00    -0.287 OA
ATOM     13  C10 LG1 d5015      36.471  33.629  45.563  0.00  0.00     0.025 C 
ENDROOT
BRANCH  13  14
ATOM     14  C11 LG1 d5015      35.278  33.262  46.265  0.00  0.00    -0.029 A 
ATOM     15  C14 LG1 d5015      35.066  31.998  46.770  0.00  0.00     0.061 A 
ATOM     16  S1  LG1 d5015      33.552  31.867  47.558  0.00  0.00    -0.113 SA
ATOM     17  C13 LG1 d5015      33.175  33.504  47.225  0.00  0.00     0.050 A 
ATOM     18  C12 LG1 d5015      34.182  34.135  46.530  0.00  0.00     0.019 A 
ENDBRANCH  13  14
TORSDOF 1
ENDMDL
MODEL 2
REMARK VINA RESULT:    -7.008      3.967      6.904
REMARK INTER + INTRA:          -7.574
REMARK INTER:                  -7.446
REMARK INTRA:                  -0.128
REMARK UNBOUND:                -0.156
REMARK  1 active torsions:
REMARK  status: ('A' for Active; 'I' for Inactive)
REMARK    1  A    between atoms: C10_13  and  C11_14 
ROOT
ATOM      1  C1  LG1 d5015      37.413  33.379  42.172  0.00  0.00     0.018 C 
ATOM      2  C2  LG1 d5015      36.357  32.571  42.831  0.00  0.00     0.193 C 
ATOM      3  C3  LG1 d5015      36.023  33.004  44.205  0.00  0.00     0.049 A 
ATOM      4  C4  LG1 d5015      35.127  32.260  44.975  0.00  0.00     0.037 A 
ATOM      5  C5  LG1 d5015      34.771  32.708  46.247  0.00  0.00     0.012 A 
ATOM      6  C6  LG1 d5015      35.299  33.899  46.747  0.00  0.00     0.022 A 
ATOM      7  C7  LG1 d5015      36.192  34.644  45.975  0.00  0.00     0.039 A 
ATOM      8  C8  LG1 d5015      36.568  34.190  44.711  0.00  0.00     0.083 A 
ATOM      9  O1  LG1 d5015      37.434  34.979  44.001  0.00  0.00    -0.346 OA
ATOM     10  C9  LG1 d5015      38.237  34.241  43.073  0.00  0.00     0.218 C 
ATOM     11 BR1  LG1 d5015      33.582  31.689  47.308  0.00  0.00    -0.051 Br
ATOM     12  O2  LG1 d5015      35.798  31.623  42.300  0.00  0.00    -0.287 OA
ATOM     13  C10 LG1 d5015      37.574  33.295  40.846  0.00  0.00     0.025 C 
ENDROOT
BRANCH  13  14
ATOM     14  C11 LG1 d5015      38.554  34.023  40.098  0.00  0.00    -0.029 A 
ATOM     15  C14 LG1 d5015      38.254  35.155  39.373  0.00  0.00     0.061 A 
ATOM     16  S1  LG1 d5015      39.631  35.801  38.590  0.00  0.00    -0.113 SA
ATOM     17  C13 LG1 d5015      40.636  34.566  39.220  0.00  0.00     0.050 A 
ATOM     18  C12 LG1 d5015      39.936  33.683  40.010  0.00  0.00     0.019 A 
ENDBRANCH  13  14
TORSDOF 1
ENDMDL
MODEL 3
REMARK VINA RESULT:    -6.704      1.236      2.216
REMARK INTER + INTRA:          -7.252
REMARK INTER:                  -7.085
REMARK INTRA:                  -0.166
REMARK UNBOUND:                -0.156
REMARK  1 active torsions:
REMARK  status: ('A' for Active; 'I' for Inactive)
REMARK    1  A    between atoms: C10_13  and  C11_14 
ROOT
ATOM      1  C1  LG1 d5015      36.498  33.702  43.793  0.00  0.00     0.018 C 
ATOM      2  C2  LG1 d5015      36.878  34.225  42.457  0.00  0.00     0.193 C 
ATOM      3  C3  LG1 d5015      38.251  33.880  42.033  0.00  0.00     0.049 A 
ATOM      4  C4  LG1 d5015      38.770  34.405  40.847  0.00  0.00     0.037 A 
ATOM      5  C5  LG1 d5015      40.045  34.026  40.423  0.00  0.00     0.012 A 
ATOM      6  C6  LG1 d5015      40.796  33.121  41.174  0.00  0.00     0.022 A 
ATOM      7  C7  LG1 d5015      40.275  32.594  42.357  0.00  0.00     0.039 A 
ATOM      8  C8  LG1 d5015      39.010  32.985  42.797  0.00  0.00     0.083 A 
ATOM      9  O1  LG1 d5015      38.553  32.417  43.956  0.00  0.00    -0.346 OA
ATOM     10  C9  LG1 d5015      37.624  33.246  44.663  0.00  0.00     0.218 C 
ATOM     11 BR1  LG1 d5015      40.766  34.757  38.835  0.00  0.00    -0.051 Br
ATOM     12  O2  LG1 d5015      36.133  34.888  41.751  0.00  0.00    -0.287 OA
ATOM     13  C10 LG1 d5015      35.207  33.671  44.144  0.00  0.00     0.025 C 
ENDROOT
BRANCH  13  14
ATOM     14  C11 LG1 d5015      34.717  33.190  45.401  0.00  0.00    -0.029 A 
ATOM     15  C14 LG1 d5015      34.384  31.872  45.619  0.00  0.00     0.061 A 
ATOM     16  S1  LG1 d5015      33.833  31.604  47.217  0.00  0.00    -0.113 SA
ATOM     17  C13 LG1 d5015      34.039  33.255  47.623  0.00  0.00     0.050 A 
ATOM     18  C12 LG1 d5015      34.517  33.991  46.563  0.00  0.00     0.019 A 
ENDBRANCH  13  14
TORSDOF 1
ENDMDL
MODEL 4
REMARK VINA RESULT:    -5.463      4.004      6.640
REMARK INTER + INTRA:          -5.938
REMARK INTER:                  -5.935
REMARK INTRA:                  -0.003
REMARK UNBOUND:                -0.156
REMARK  1 active torsions:
REMARK  status: ('A' for Active; 'I' for Inactive)
REMARK    1  A    between atoms: C10_13  and  C11_14 
ROOT
ATOM      1  C1  LG1 d5015      37.492  34.074  43.073  0.00  0.00     0.018 C 
ATOM      2  C2  LG1 d5015      36.884  34.445  44.375  0.00  0.00     0.193 C 
ATOM      3  C3  LG1 d5015      35.846  33.508  44.856  0.00  0.00     0.049 A 
ATOM      4  C4  LG1 d5015      35.119  33.802  46.011  0.00  0.00     0.037 A 
ATOM      5  C5  LG1 d5015      34.183  32.884  46.491  0.00  0.00     0.012 A 
ATOM      6  C6  LG1 d5015      33.981  31.674  45.827  0.00  0.00     0.022 A 
ATOM      7  C7  LG1 d5015      34.712  31.379  44.674  0.00  0.00     0.039 A 
ATOM      8  C8  LG1 d5015      35.632  32.302  44.178  0.00  0.00     0.083 A 
ATOM      9  O1  LG1 d5015      36.326  31.942  43.053  0.00  0.00    -0.346 OA
ATOM     10  C9  LG1 d5015      36.745  33.062  42.266  0.00  0.00     0.218 C 
ATOM     11 BR1  LG1 d5015      33.172  33.289  48.037  0.00  0.00    -0.051 Br
ATOM     12  O2  LG1 d5015      37.200  35.439  45.013  0.00  0.00    -0.287 OA
ATOM     13  C10 LG1 d5015      38.640  34.649  42.696  0.00  0.00     0.025 C 
ENDROOT
BRANCH  13  14
ATOM     14  C11 LG1 d5015      39.322  34.373  41.467  0.00  0.00    -0.029 A 
ATOM     15  C14 LG1 d5015      38.827  34.746  40.237  0.00  0.00     0.061 A 
ATOM     16  S1  LG1 d5015      39.865  34.280  38.959  0.00  0.00    -0.113 SA
ATOM     17  C13 LG1 d5015      40.982  33.576  40.049  0.00  0.00     0.050 A 
ATOM     18  C12 LG1 d5015      40.571  33.695  41.358  0.00  0.00     0.019 A 
ENDBRANCH  13  14
TORSDOF 1
ENDMDL
