MODEL 1
REMARK VINA RESULT:    -9.007      0.000      0.000
REMARK INTER + INTRA:         -10.601
REMARK INTER:                 -10.119
REMARK INTRA:                  -0.482
REMARK UNBOUND:                -0.541
REMARK  2 active torsions:
REMARK  status: ('A' for Active; 'I' for Inactive)
REMARK    1  A    between atoms: C1_1  and  N1_15 
REMARK    2  A    between atoms: C7_9  and  C4_4 
ROOT
ATOM      1  C1  LG1 d5015      37.747  33.406  42.628  0.00  0.00     0.141 A 
ATOM      2  C2  LG1 d5015      37.628  34.249  43.733  0.00  0.00     0.187 A 
ATOM      3  C3  LG1 d5015      36.751  33.924  44.767  0.00  0.00     0.175 A 
ATOM      4  C4  LG1 d5015      35.992  32.757  44.697  0.00  0.00     0.131 A 
ATOM      5  C5  LG1 d5015      36.109  31.914  43.593  0.00  0.00     0.175 A 
ATOM      6  C6  LG1 d5015      36.987  32.238  42.559  0.00  0.00     0.187 A 
ATOM      7  F1  LG1 d5015      37.090  31.418  41.503  0.00  0.00    -0.200 F 
ATOM      8  F2  LG1 d5015      35.383  30.789  43.517  0.00  0.00    -0.202 F 
ATOM      9  F6  LG1 d5015      36.645  34.742  45.825  0.00  0.00    -0.202 F 
ATOM     10  F7  LG1 d5015      38.352  35.375  43.813  0.00  0.00    -0.200 F 
ENDROOT
BRANCH   1  11
ATOM     11  N1  LG1 d5015      38.616  33.727  41.602  0.00  0.00    -0.232 N 
ATOM     12  N2  LG1 d5015      38.238  34.606  40.657  0.00  0.00    -0.172 NA
ATOM     13  C10 LG1 d5015      39.303  34.665  39.854  0.00  0.00     0.053 A 
ATOM     14  C9  LG1 d5015      40.353  33.830  40.282  0.00  0.00     0.055 A 
ATOM     15  C11 LG1 d5015      39.280  35.543  38.672  0.00  0.00     0.072 C 
ATOM     16  C8  LG1 d5015      39.874  33.234  41.423  0.00  0.00     0.035 A 
ATOM     17  C12 LG1 d5015      40.506  32.258  42.332  0.00  0.00     0.070 C 
ENDBRANCH   1  11
BRANCH   4  18
ATOM     18  C7  LG1 d5015      35.053  32.410  45.804  0.00  0.00     0.423 C 
ATOM     19  F4  LG1 d5015      33.960  31.702  45.393  0.00  0.00    -0.166 F 
ATOM     20  F3  LG1 d5015      34.547  33.500  46.453  0.00  0.00    -0.166 F 
ATOM     21  F5  LG1 d5015      35.641  31.649  46.772  0.00  0.00    -0.166 F 
ENDBRANCH   4  18
TORSDOF 2
ENDMDL
MODEL 2
REMARK VINA RESULT:    -9.003      0.079      2.327
REMARK INTER + INTRA:         -10.597
REMARK INTER:                 -10.119
REMARK INTRA:                  -0.478
REMARK UNBOUND:                -0.541
REMARK  2 active torsions:
REMARK  status: ('A' for Active; 'I' for Inactive)
REMARK    1  A    between atoms: C1_1  and  N1_15 
REMARK    2  A    between atoms: C7_9  and  C4_4 
ROOT
ATOM      1  C1  LG1 d5015      37.772  33.442  42.632  0.00  0.00     0.141 A 
ATOM      2  C2  LG1 d5015      36.999  32.282  42.582  0.00  0.00     0.187 A 
ATOM      3  C3  LG1 d5015      36.135  31.974  43.632  0.00  0.00     0.175 A 
ATOM      4  C4  LG1 d5015      36.044  32.825  44.733  0.00  0.00     0.131 A 
ATOM      5  C5  LG1 d5015      36.817  33.984  44.784  0.00  0.00     0.175 A 
ATOM      6  C6  LG1 d5015      37.680  34.293  43.733  0.00  0.00     0.187 A 
ATOM      7  F1  LG1 d5015      38.417  35.411  43.796  0.00  0.00    -0.200 F 
ATOM      8  F2  LG1 d5015      36.736  34.809  45.839  0.00  0.00    -0.202 F 
ATOM      9  F6  LG1 d5015      35.395  30.856  43.573  0.00  0.00    -0.202 F 
ATOM     10  F7  LG1 d5015      37.077  31.455  41.529  0.00  0.00    -0.200 F 
ENDROOT
BRANCH   1  11
ATOM     11  N1  LG1 d5015      38.630  33.748  41.591  0.00  0.00    -0.232 N 
ATOM     12  N2  LG1 d5015      38.250  34.631  40.651  0.00  0.00    -0.172 NA
ATOM     13  C10 LG1 d5015      39.303  34.672  39.831  0.00  0.00     0.053 A 
ATOM     14  C9  LG1 d5015      40.347  33.821  40.243  0.00  0.00     0.055 A 
ATOM     15  C11 LG1 d5015      39.276  35.549  38.648  0.00  0.00     0.072 C 
ATOM     16  C8  LG1 d5015      39.877  33.234  41.393  0.00  0.00     0.035 A 
ATOM     17  C12 LG1 d5015      40.507  32.249  42.293  0.00  0.00     0.070 C 
ENDBRANCH   1  11
BRANCH   4  18
ATOM     18  C7  LG1 d5015      35.119  32.494  45.857  0.00  0.00     0.423 C 
ATOM     19  F4  LG1 d5015      34.017  31.789  45.468  0.00  0.00    -0.166 F 
ATOM     20  F3  LG1 d5015      34.630  33.593  46.504  0.00  0.00    -0.166 F 
ATOM     21  F5  LG1 d5015      35.717  31.737  46.822  0.00  0.00    -0.166 F 
ENDBRANCH   4  18
TORSDOF 2
ENDMDL
MODEL 3
REMARK VINA RESULT:    -8.997      2.921      6.166
REMARK INTER + INTRA:         -10.590
REMARK INTER:                 -10.092
REMARK INTRA:                  -0.498
REMARK UNBOUND:                -0.541
REMARK  2 active torsions:
REMARK  status: ('A' for Active; 'I' for Inactive)
REMARK    1  A    between atoms: C1_1  and  N1_15 
REMARK    2  A    between atoms: C7_9  and  C4_4 
ROOT
ATOM      1  C1  LG1 d5015      38.189  33.826  42.799  0.00  0.00     0.141 A 
ATOM      2  C2  LG1 d5015      37.439  34.627  41.938  0.00  0.00     0.187 A 
ATOM      3  C3  LG1 d5015      37.949  34.973  40.687  0.00  0.00     0.175 A 
ATOM      4  C4  LG1 d5015      39.209  34.521  40.297  0.00  0.00     0.131 A 
ATOM      5  C5  LG1 d5015      39.960  33.721  41.158  0.00  0.00     0.175 A 
ATOM      6  C6  LG1 d5015      39.450  33.374  42.409  0.00  0.00     0.187 A 
ATOM      7  F1  LG1 d5015      40.183  32.604  43.226  0.00  0.00    -0.200 F 
ATOM      8  F2  LG1 d5015      41.173  33.282  40.792  0.00  0.00    -0.202 F 
ATOM      9  F6  LG1 d5015      37.218  35.743  39.866  0.00  0.00    -0.202 F 
ATOM     10  F7  LG1 d5015      36.225  35.069  42.300  0.00  0.00    -0.200 F 
ENDROOT
BRANCH   1  11
ATOM     11  N1  LG1 d5015      37.685  33.482  44.040  0.00  0.00    -0.232 N 
ATOM     12  N2  LG1 d5015      36.832  32.449  44.151  0.00  0.00    -0.172 NA
ATOM     13  C10 LG1 d5015      36.565  32.416  45.459  0.00  0.00     0.053 A 
ATOM     14  C9  LG1 d5015      37.240  33.421  46.178  0.00  0.00     0.055 A 
ATOM     15  C11 LG1 d5015      35.647  31.395  45.992  0.00  0.00     0.072 C 
ATOM     16  C8  LG1 d5015      37.961  34.098  45.224  0.00  0.00     0.035 A 
ATOM     17  C12 LG1 d5015      38.870  35.254  45.351  0.00  0.00     0.070 C 
ENDBRANCH   1  11
BRANCH   4  18
ATOM     18  C7  LG1 d5015      39.754  34.893  38.959  0.00  0.00     0.423 C 
ATOM     19  F4  LG1 d5015      41.073  35.242  38.984  0.00  0.00    -0.166 F 
ATOM     20  F3  LG1 d5015      39.115  35.955  38.385  0.00  0.00    -0.166 F 
ATOM     21  F5  LG1 d5015      39.660  33.877  38.053  0.00  0.00    -0.166 F 
ENDBRANCH   4  18
TORSDOF 2
ENDMDL
MODEL 4
REMARK VINA RESULT:    -8.856      2.858      6.173
REMARK INTER + INTRA:         -10.432
REMARK INTER:                  -9.996
REMARK INTRA:                  -0.436
REMARK UNBOUND:                -0.541
REMARK  2 active torsions:
REMARK  status: ('A' for Active; 'I' for Inactive)
REMARK    1  A    between atoms: C1_1  and  N1_15 
REMARK    2  A    between atoms: C7_9  and  C4_4 
ROOT
ATOM      1  C1  LG1 d5015      37.967  33.799  42.950  0.00  0.00     0.141 A 
ATOM      2  C2  LG1 d5015      39.202  33.247  42.607  0.00  0.00     0.187 A 
ATOM      3  C3  LG1 d5015      39.781  33.545  41.374  0.00  0.00     0.175 A 
ATOM      4  C4  LG1 d5015      39.126  34.394  40.483  0.00  0.00     0.131 A 
ATOM      5  C5  LG1 d5015      37.892  34.945  40.824  0.00  0.00     0.175 A 
ATOM      6  C6  LG1 d5015      37.313  34.648  42.057  0.00  0.00     0.187 A 
ATOM      7  F1  LG1 d5015      36.125  35.185  42.372  0.00  0.00    -0.200 F 
ATOM      8  F2  LG1 d5015      37.254  35.763  39.972  0.00  0.00    -0.202 F 
ATOM      9  F6  LG1 d5015      40.969  33.009  41.056  0.00  0.00    -0.202 F 
ATOM     10  F7  LG1 d5015      39.843  32.429  43.455  0.00  0.00    -0.200 F 
ENDROOT
BRANCH   1  11
ATOM     11  N1  LG1 d5015      37.392  33.504  44.172  0.00  0.00    -0.232 N 
ATOM     12  N2  LG1 d5015      36.398  32.601  44.241  0.00  0.00    -0.172 NA
ATOM     13  C10 LG1 d5015      36.100  32.579  45.542  0.00  0.00     0.053 A 
ATOM     14  C9  LG1 d5015      36.896  33.460  46.299  0.00  0.00     0.055 A 
ATOM     15  C11 LG1 d5015      35.033  31.689  46.033  0.00  0.00     0.072 C 
ATOM     16  C8  LG1 d5015      37.727  34.047  45.376  0.00  0.00     0.035 A 
ATOM     17  C12 LG1 d5015      38.789  35.057  45.549  0.00  0.00     0.070 C 
ENDBRANCH   1  11
BRANCH   4  18
ATOM     18  C7  LG1 d5015      39.746  34.712  39.163  0.00  0.00     0.423 C 
ATOM     19  F4  LG1 d5015      39.226  35.825  38.568  0.00  0.00    -0.166 F 
ATOM     20  F3  LG1 d5015      39.607  33.716  38.240  0.00  0.00    -0.166 F 
ATOM     21  F5  LG1 d5015      41.089  34.939  39.256  0.00  0.00    -0.166 F 
ENDBRANCH   4  18
TORSDOF 2
ENDMDL
MODEL 5
REMARK VINA RESULT:    -8.513      2.381      6.156
REMARK INTER + INTRA:         -10.050
REMARK INTER:                  -9.509
REMARK INTRA:                  -0.541
REMARK UNBOUND:                -0.541
REMARK  2 active torsions:
REMARK  status: ('A' for Active; 'I' for Inactive)
REMARK    1  A    between atoms: C1_1  and  N1_15 
REMARK    2  A    between atoms: C7_9  and  C4_4 
ROOT
ATOM      1  C1  LG1 d5015      36.862  32.914  44.207  0.00  0.00     0.141 A 
ATOM      2  C2  LG1 d5015      36.714  32.101  43.082  0.00  0.00     0.187 A 
ATOM      3  C3  LG1 d5015      37.562  32.264  41.987  0.00  0.00     0.175 A 
ATOM      4  C4  LG1 d5015      38.557  33.241  42.015  0.00  0.00     0.131 A 
ATOM      5  C5  LG1 d5015      38.705  34.054  43.138  0.00  0.00     0.175 A 
ATOM      6  C6  LG1 d5015      37.858  33.890  44.233  0.00  0.00     0.187 A 
ATOM      7  F1  LG1 d5015      38.012  34.680  45.306  0.00  0.00    -0.200 F 
ATOM      8  F2  LG1 d5015      39.659  34.996  43.173  0.00  0.00    -0.202 F 
ATOM      9  F6  LG1 d5015      37.411  31.477  40.912  0.00  0.00    -0.202 F 
ATOM     10  F7  LG1 d5015      35.762  31.158  43.043  0.00  0.00    -0.200 F 
ENDROOT
BRANCH   1  11
ATOM     11  N1  LG1 d5015      36.022  32.753  45.293  0.00  0.00    -0.232 N 
ATOM     12  N2  LG1 d5015      34.920  33.515  45.403  0.00  0.00    -0.172 NA
ATOM     13  C10 LG1 d5015      34.372  33.091  46.545  0.00  0.00     0.053 A 
ATOM     14  C9  LG1 d5015      35.118  32.068  47.160  0.00  0.00     0.055 A 
ATOM     15  C11 LG1 d5015      33.117  33.697  47.022  0.00  0.00     0.072 C 
ATOM     16  C8  LG1 d5015      36.187  31.871  46.319  0.00  0.00     0.035 A 
ATOM     17  C12 LG1 d5015      37.321  30.931  46.414  0.00  0.00     0.070 C 
ENDBRANCH   1  11
BRANCH   4  18
ATOM     18  C7  LG1 d5015      39.463  33.416  40.842  0.00  0.00     0.423 C 
ATOM     19  F4  LG1 d5015      40.307  34.482  40.957  0.00  0.00    -0.166 F 
ATOM     20  F3  LG1 d5015      38.800  33.612  39.664  0.00  0.00    -0.166 F 
ATOM     21  F5  LG1 d5015      40.266  32.332  40.634  0.00  0.00    -0.166 F 
ENDBRANCH   4  18
TORSDOF 2
ENDMDL
