REMARK INTER + INTRA:          -7.252
REMARK INTER:                  -7.085
REMARK INTRA:                  -0.166
REMARK UNBOUND:                -0.156
REMARK  1 active torsions:
REMARK  status: ('A' for Active; 'I' for Inactive)
REMARK    1  A    between atoms: C10_13  and  C11_14 
ROOT
ATOM      1  C1  LG1 d5015      36.498  33.702  43.793  0.00  0.00     0.018 C 
ATOM      2  C2  LG1 d5015      36.878  34.225  42.457  0.00  0.00     0.193 C 
ATOM      3  C3  LG1 d5015      38.251  33.880  42.033  0.00  0.00     0.049 A 
ATOM      4  C4  LG1 d5015      38.770  34.405  40.847  0.00  0.00     0.037 A 
ATOM      5  C5  LG1 d5015      40.045  34.026  40.423  0.00  0.00     0.012 A 
ATOM      6  C6  LG1 d5015      40.796  33.121  41.174  0.00  0.00     0.022 A 
ATOM      7  C7  LG1 d5015      40.275  32.594  42.357  0.00  0.00     0.039 A 
ATOM      8  C8  LG1 d5015      39.010  32.985  42.797  0.00  0.00     0.083 A 
ATOM      9  O1  LG1 d5015      38.553  32.417  43.956  0.00  0.00    -0.346 OA
ATOM     10  C9  LG1 d5015      37.624  33.246  44.663  0.00  0.00     0.218 C 
ATOM     11 BR1  LG1 d5015      40.766  34.757  38.835  0.00  0.00    -0.051 Br
ATOM     12  O2  LG1 d5015      36.133  34.888  41.751  0.00  0.00    -0.287 OA
ATOM     13  C10 LG1 d5015      35.207  33.671  44.144  0.00  0.00     0.025 C 
ENDROOT
BRANCH  13  14
ATOM     14  C11 LG1 d5015      34.717  33.190  45.401  0.00  0.00    -0.029 A 
ATOM     15  C14 LG1 d5015      34.384  31.872  45.619  0.00  0.00     0.061 A 
ATOM     16  S1  LG1 d5015      33.833  31.604  47.217  0.00  0.00    -0.113 SA
ATOM     17  C13 LG1 d5015      34.039  33.255  47.623  0.00  0.00     0.050 A 
ATOM     18  C12 LG1 d5015      34.517  33.991  46.563  0.00  0.00     0.019 A 
ENDBRANCH  13  14
TORSDOF 1
ENDMDL
