REMARK INTER + INTRA:          -7.123
REMARK INTER:                  -6.921
REMARK INTRA:                  -0.202
REMARK UNBOUND:                -0.202
REMARK  1 active torsions:
REMARK  status: ('A' for Active; 'I' for Inactive)
REMARK    1  A    between atoms: C1_1  and  N1_10 
ROOT
ATOM      1  C1  LG1 d5015      37.368  33.264  43.859  0.00  0.00     0.056 A 
ATOM      2  C2  LG1 d5015      38.460  34.114  44.033  0.00  0.00    -0.033 A 
ATOM      3  C3  LG1 d5015      39.391  34.272  43.005  0.00  0.00     0.028 A 
ATOM      4  C4  LG1 d5015      39.230  33.580  41.806  0.00  0.00     0.012 A 
ATOM      5  C5  LG1 d5015      38.137  32.728  41.633  0.00  0.00     0.028 A 
ATOM      6  C6  LG1 d5015      37.208  32.571  42.660  0.00  0.00    -0.033 A 
ATOM      7  C7  LG1 d5015      36.048  31.652  42.445  0.00  0.00     0.050 C 
ATOM      8 BR1  LG1 d5015      40.492  33.792  40.415  0.00  0.00    -0.051 Br
ATOM      9  C8  LG1 d5015      38.658  34.871  45.306  0.00  0.00     0.050 C 
ENDROOT
BRANCH   1  10
ATOM     10  N1  LG1 d5015      36.409  33.103  44.916  0.00  0.00    -0.265 N 
ATOM     11  C11 LG1 d5015      36.462  32.089  45.872  0.00  0.00     0.148 C 
ATOM     12  S2  LG1 d5015      37.677  30.988  46.218  0.00  0.00    -0.052 SA
ATOM     13  S1  LG1 d5015      35.009  32.144  46.863  0.00  0.00    -0.090 SA
ATOM     14  C10 LG1 d5015      34.465  33.716  46.196  0.00  0.00     0.185 C 
ATOM     15  C9  LG1 d5015      35.333  33.997  45.004  0.00  0.00     0.239 C 
ATOM     16  O1  LG1 d5015      35.057  34.911  44.231  0.00  0.00    -0.272 OA
ENDBRANCH   1  10
TORSDOF 1
ENDMDL
