REMARK INTER + INTRA:          -5.761
REMARK INTER:                  -5.774
REMARK INTRA:                   0.013
REMARK UNBOUND:                -0.164
REMARK  1 active torsions:
REMARK  status: ('A' for Active; 'I' for Inactive)
REMARK    1  A    between atoms: C10_13  and  C11_14 
ROOT
ATOM      1  C1  LG1 d5015      37.548  34.092  42.877  0.00  0.00     0.018 C 
ATOM      2  C2  LG1 d5015      36.987  34.405  44.215  0.00  0.00     0.193 C 
ATOM      3  C3  LG1 d5015      35.984  33.434  44.701  0.00  0.00     0.049 A 
ATOM      4  C4  LG1 d5015      35.299  33.673  45.894  0.00  0.00     0.037 A 
ATOM      5  C5  LG1 d5015      34.398  32.722  46.377  0.00  0.00     0.012 A 
ATOM      6  C6  LG1 d5015      34.189  31.533  45.677  0.00  0.00     0.022 A 
ATOM      7  C7  LG1 d5015      34.877  31.293  44.487  0.00  0.00     0.039 A 
ATOM      8  C8  LG1 d5015      35.762  32.249  43.989  0.00  0.00     0.083 A 
ATOM      9  O1  LG1 d5015      36.416  31.942  42.825  0.00  0.00    -0.346 OA
ATOM     10  C9  LG1 d5015      36.785  33.097  42.064  0.00  0.00     0.218 C 
ATOM     11 BR1  LG1 d5015      33.444  33.053  47.976  0.00  0.00    -0.051 Br
ATOM     12  O2  LG1 d5015      37.312  35.381  44.876  0.00  0.00    -0.287 OA
ATOM     13  C10 LG1 d5015      38.671  34.700  42.476  0.00  0.00     0.025 C 
ENDROOT
BRANCH  13  14
ATOM     14  C11 LG1 d5015      39.307  34.481  41.212  0.00  0.00    -0.029 A 
ATOM     15  C14 LG1 d5015      38.741  34.858  40.015  0.00  0.00     0.061 A 
ATOM     16  S1  LG1 d5015      39.739  34.466  38.681  0.00  0.00    -0.113 SA
ATOM     17  C13 LG1 d5015      40.932  33.788  39.703  0.00  0.00     0.050 A 
ATOM     18  C12 LG1 d5015      40.577  33.860  41.031  0.00  0.00     0.019 A 
ENDBRANCH  13  14
TORSDOF 1
ENDMDL
