REMARK INTER + INTRA:         -10.432
REMARK INTER:                  -9.996
REMARK INTRA:                  -0.436
REMARK UNBOUND:                -0.541
REMARK  2 active torsions:
REMARK  status: ('A' for Active; 'I' for Inactive)
REMARK    1  A    between atoms: C1_1  and  N1_15 
REMARK    2  A    between atoms: C7_9  and  C4_4 
ROOT
ATOM      1  C1  LG1 d5015      37.967  33.799  42.950  0.00  0.00     0.141 A 
ATOM      2  C2  LG1 d5015      39.202  33.247  42.607  0.00  0.00     0.187 A 
ATOM      3  C3  LG1 d5015      39.781  33.545  41.374  0.00  0.00     0.175 A 
ATOM      4  C4  LG1 d5015      39.126  34.394  40.483  0.00  0.00     0.131 A 
ATOM      5  C5  LG1 d5015      37.892  34.945  40.824  0.00  0.00     0.175 A 
ATOM      6  C6  LG1 d5015      37.313  34.648  42.057  0.00  0.00     0.187 A 
ATOM      7  F1  LG1 d5015      36.125  35.185  42.372  0.00  0.00    -0.200 F 
ATOM      8  F2  LG1 d5015      37.254  35.763  39.972  0.00  0.00    -0.202 F 
ATOM      9  F6  LG1 d5015      40.969  33.009  41.056  0.00  0.00    -0.202 F 
ATOM     10  F7  LG1 d5015      39.843  32.429  43.455  0.00  0.00    -0.200 F 
ENDROOT
BRANCH   1  11
ATOM     11  N1  LG1 d5015      37.392  33.504  44.172  0.00  0.00    -0.232 N 
ATOM     12  N2  LG1 d5015      36.398  32.601  44.241  0.00  0.00    -0.172 NA
ATOM     13  C10 LG1 d5015      36.100  32.579  45.542  0.00  0.00     0.053 A 
ATOM     14  C9  LG1 d5015      36.896  33.460  46.299  0.00  0.00     0.055 A 
ATOM     15  C11 LG1 d5015      35.033  31.689  46.033  0.00  0.00     0.072 C 
ATOM     16  C8  LG1 d5015      37.727  34.047  45.376  0.00  0.00     0.035 A 
ATOM     17  C12 LG1 d5015      38.789  35.057  45.549  0.00  0.00     0.070 C 
ENDBRANCH   1  11
BRANCH   4  18
ATOM     18  C7  LG1 d5015      39.746  34.712  39.163  0.00  0.00     0.423 C 
ATOM     19  F4  LG1 d5015      39.226  35.825  38.568  0.00  0.00    -0.166 F 
ATOM     20  F3  LG1 d5015      39.607  33.716  38.240  0.00  0.00    -0.166 F 
ATOM     21  F5  LG1 d5015      41.089  34.939  39.256  0.00  0.00    -0.166 F 
ENDBRANCH   4  18
TORSDOF 2
ENDMDL
