REMARK INTER + INTRA:          -7.987
REMARK INTER:                  -7.834
REMARK INTRA:                  -0.153
REMARK UNBOUND:                -0.018
REMARK  1 active torsions:
REMARK  status: ('A' for Active; 'I' for Inactive)
REMARK    1  A    between atoms: C10_13  and  C11_14 
ROOT
ATOM      1  C1  LG1 d5015      36.640  33.443  44.241  0.00  0.00     0.018 C 
ATOM      2  C2  LG1 d5015      37.920  33.877  43.627  0.00  0.00     0.193 C 
ATOM      3  C3  LG1 d5015      37.889  33.978  42.153  0.00  0.00     0.049 A 
ATOM      4  C4  LG1 d5015      39.059  34.267  41.446  0.00  0.00     0.037 A 
ATOM      5  C5  LG1 d5015      39.008  34.420  40.060  0.00  0.00     0.012 A 
ATOM      6  C6  LG1 d5015      37.795  34.295  39.382  0.00  0.00     0.022 A 
ATOM      7  C7  LG1 d5015      36.626  34.010  40.090  0.00  0.00     0.039 A 
ATOM      8  C8  LG1 d5015      36.674  33.834  41.473  0.00  0.00     0.083 A 
ATOM      9  O1  LG1 d5015      35.488  33.573  42.106  0.00  0.00    -0.346 OA
ATOM     10  C9  LG1 d5015      35.647  32.821  43.314  0.00  0.00     0.218 C 
ATOM     11 BR1  LG1 d5015      40.593  34.781  39.093  0.00  0.00    -0.051 Br
ATOM     12  O2  LG1 d5015      38.928  34.133  44.270  0.00  0.00    -0.287 OA
ATOM     13  C10 LG1 d5015      36.448  33.620  45.554  0.00  0.00     0.025 C 
ENDROOT
BRANCH  13  14
ATOM     14  C11 LG1 d5015      35.259  33.244  46.258  0.00  0.00    -0.029 A 
ATOM     15  C14 LG1 d5015      35.059  31.981  46.767  0.00  0.00     0.061 A 
ATOM     16  S1  LG1 d5015      33.547  31.838  47.556  0.00  0.00    -0.113 SA
ATOM     17  C13 LG1 d5015      33.153  33.469  47.218  0.00  0.00     0.050 A 
ATOM     18  C12 LG1 d5015      34.155  34.107  46.520  0.00  0.00     0.019 A 
ENDBRANCH  13  14
TORSDOF 1
ENDMDL
