REMARK INTER + INTRA:          -7.971
REMARK INTER:                  -7.821
REMARK INTRA:                  -0.150
REMARK UNBOUND:                -0.156
REMARK  1 active torsions:
REMARK  status: ('A' for Active; 'I' for Inactive)
REMARK    1  A    between atoms: C10_13  and  C11_14 
ROOT
ATOM      1  C1  LG1 d5015      36.668  33.443  44.252  0.00  0.00     0.018 C 
ATOM      2  C2  LG1 d5015      37.951  33.869  43.640  0.00  0.00     0.193 C 
ATOM      3  C3  LG1 d5015      37.926  33.960  42.165  0.00  0.00     0.049 A 
ATOM      4  C4  LG1 d5015      39.098  34.241  41.460  0.00  0.00     0.037 A 
ATOM      5  C5  LG1 d5015      39.053  34.385  40.073  0.00  0.00     0.012 A 
ATOM      6  C6  LG1 d5015      37.842  34.260  39.392  0.00  0.00     0.022 A 
ATOM      7  C7  LG1 d5015      36.670  33.984  40.097  0.00  0.00     0.039 A 
ATOM      8  C8  LG1 d5015      36.712  33.817  41.481  0.00  0.00     0.083 A 
ATOM      9  O1  LG1 d5015      35.523  33.564  42.112  0.00  0.00    -0.346 OA
ATOM     10  C9  LG1 d5015      35.675  32.819  43.325  0.00  0.00     0.218 C 
ATOM     11 BR1  LG1 d5015      40.643  34.734  39.109  0.00  0.00    -0.051 Br
ATOM     12  O2  LG1 d5015      38.958  34.125  44.285  0.00  0.00    -0.287 OA
ATOM     13  C10 LG1 d5015      36.471  33.629  45.563  0.00  0.00     0.025 C 
ENDROOT
BRANCH  13  14
ATOM     14  C11 LG1 d5015      35.278  33.262  46.265  0.00  0.00    -0.029 A 
ATOM     15  C14 LG1 d5015      35.066  31.998  46.770  0.00  0.00     0.061 A 
ATOM     16  S1  LG1 d5015      33.552  31.867  47.558  0.00  0.00    -0.113 SA
ATOM     17  C13 LG1 d5015      33.175  33.504  47.225  0.00  0.00     0.050 A 
ATOM     18  C12 LG1 d5015      34.182  34.135  46.530  0.00  0.00     0.019 A 
ENDBRANCH  13  14
TORSDOF 1
ENDMDL
