REMARK INTER + INTRA:         -10.050
REMARK INTER:                  -9.509
REMARK INTRA:                  -0.541
REMARK UNBOUND:                -0.541
REMARK  2 active torsions:
REMARK  status: ('A' for Active; 'I' for Inactive)
REMARK    1  A    between atoms: C1_1  and  N1_15 
REMARK    2  A    between atoms: C7_9  and  C4_4 
ROOT
ATOM      1  C1  LG1 d5015      36.862  32.914  44.207  0.00  0.00     0.141 A 
ATOM      2  C2  LG1 d5015      36.714  32.101  43.082  0.00  0.00     0.187 A 
ATOM      3  C3  LG1 d5015      37.562  32.264  41.987  0.00  0.00     0.175 A 
ATOM      4  C4  LG1 d5015      38.557  33.241  42.015  0.00  0.00     0.131 A 
ATOM      5  C5  LG1 d5015      38.705  34.054  43.138  0.00  0.00     0.175 A 
ATOM      6  C6  LG1 d5015      37.858  33.890  44.233  0.00  0.00     0.187 A 
ATOM      7  F1  LG1 d5015      38.012  34.680  45.306  0.00  0.00    -0.200 F 
ATOM      8  F2  LG1 d5015      39.659  34.996  43.173  0.00  0.00    -0.202 F 
ATOM      9  F6  LG1 d5015      37.411  31.477  40.912  0.00  0.00    -0.202 F 
ATOM     10  F7  LG1 d5015      35.762  31.158  43.043  0.00  0.00    -0.200 F 
ENDROOT
BRANCH   1  11
ATOM     11  N1  LG1 d5015      36.022  32.753  45.293  0.00  0.00    -0.232 N 
ATOM     12  N2  LG1 d5015      34.920  33.515  45.403  0.00  0.00    -0.172 NA
ATOM     13  C10 LG1 d5015      34.372  33.091  46.545  0.00  0.00     0.053 A 
ATOM     14  C9  LG1 d5015      35.118  32.068  47.160  0.00  0.00     0.055 A 
ATOM     15  C11 LG1 d5015      33.117  33.697  47.022  0.00  0.00     0.072 C 
ATOM     16  C8  LG1 d5015      36.187  31.871  46.319  0.00  0.00     0.035 A 
ATOM     17  C12 LG1 d5015      37.321  30.931  46.414  0.00  0.00     0.070 C 
ENDBRANCH   1  11
BRANCH   4  18
ATOM     18  C7  LG1 d5015      39.463  33.416  40.842  0.00  0.00     0.423 C 
ATOM     19  F4  LG1 d5015      40.307  34.482  40.957  0.00  0.00    -0.166 F 
ATOM     20  F3  LG1 d5015      38.800  33.612  39.664  0.00  0.00    -0.166 F 
ATOM     21  F5  LG1 d5015      40.266  32.332  40.634  0.00  0.00    -0.166 F 
ENDBRANCH   4  18
TORSDOF 2
ENDMDL
