REMARK INTER + INTRA:          -7.956
REMARK INTER:                  -7.800
REMARK INTRA:                  -0.156
REMARK UNBOUND:                -0.202
REMARK  1 active torsions:
REMARK  status: ('A' for Active; 'I' for Inactive)
REMARK    1  A    between atoms: C1_1  and  N1_10 
ROOT
ATOM      1  C1  LG1 d5015      37.615  33.537  42.836  0.00  0.00     0.056 A 
ATOM      2  C2  LG1 d5015      36.591  32.600  42.698  0.00  0.00    -0.033 A 
ATOM      3  C3  LG1 d5015      35.665  32.424  43.727  0.00  0.00     0.028 A 
ATOM      4  C4  LG1 d5015      35.762  33.184  44.892  0.00  0.00     0.012 A 
ATOM      5  C5  LG1 d5015      36.789  34.120  45.030  0.00  0.00     0.028 A 
ATOM      6  C6  LG1 d5015      37.714  34.296  44.002  0.00  0.00    -0.033 A 
ATOM      7  C7  LG1 d5015      38.801  35.306  44.179  0.00  0.00     0.050 C 
ATOM      8 BR1  LG1 d5015      34.508  32.944  46.285  0.00  0.00    -0.051 Br
ATOM      9  C8  LG1 d5015      36.459  31.773  41.461  0.00  0.00     0.050 C 
ENDROOT
BRANCH   1  10
ATOM     10  N1  LG1 d5015      38.568  33.719  41.778  0.00  0.00    -0.265 N 
ATOM     11  C11 LG1 d5015      38.346  34.517  40.654  0.00  0.00     0.148 C 
ATOM     12  S2  LG1 d5015      37.120  35.611  40.327  0.00  0.00    -0.052 SA
ATOM     13  S1  LG1 d5015      39.682  34.320  39.526  0.00  0.00    -0.090 SA
ATOM     14  C10 LG1 d5015      40.691  33.402  40.688  0.00  0.00     0.185 C 
ATOM     15  C9  LG1 d5015      39.799  33.052  41.844  0.00  0.00     0.239 C 
ATOM     16  O1  LG1 d5015      40.169  32.253  42.700  0.00  0.00    -0.272 OA
ENDBRANCH   1  10
TORSDOF 1
ENDMDL
