REMARK INTER + INTRA:         -10.597
REMARK INTER:                 -10.119
REMARK INTRA:                  -0.478
REMARK UNBOUND:                -0.541
REMARK  2 active torsions:
REMARK  status: ('A' for Active; 'I' for Inactive)
REMARK    1  A    between atoms: C1_1  and  N1_15 
REMARK    2  A    between atoms: C7_9  and  C4_4 
ROOT
ATOM      1  C1  LG1 d5015      37.772  33.442  42.632  0.00  0.00     0.141 A 
ATOM      2  C2  LG1 d5015      36.999  32.282  42.582  0.00  0.00     0.187 A 
ATOM      3  C3  LG1 d5015      36.135  31.974  43.632  0.00  0.00     0.175 A 
ATOM      4  C4  LG1 d5015      36.044  32.825  44.733  0.00  0.00     0.131 A 
ATOM      5  C5  LG1 d5015      36.817  33.984  44.784  0.00  0.00     0.175 A 
ATOM      6  C6  LG1 d5015      37.680  34.293  43.733  0.00  0.00     0.187 A 
ATOM      7  F1  LG1 d5015      38.417  35.411  43.796  0.00  0.00    -0.200 F 
ATOM      8  F2  LG1 d5015      36.736  34.809  45.839  0.00  0.00    -0.202 F 
ATOM      9  F6  LG1 d5015      35.395  30.856  43.573  0.00  0.00    -0.202 F 
ATOM     10  F7  LG1 d5015      37.077  31.455  41.529  0.00  0.00    -0.200 F 
ENDROOT
BRANCH   1  11
ATOM     11  N1  LG1 d5015      38.630  33.748  41.591  0.00  0.00    -0.232 N 
ATOM     12  N2  LG1 d5015      38.250  34.631  40.651  0.00  0.00    -0.172 NA
ATOM     13  C10 LG1 d5015      39.303  34.672  39.831  0.00  0.00     0.053 A 
ATOM     14  C9  LG1 d5015      40.347  33.821  40.243  0.00  0.00     0.055 A 
ATOM     15  C11 LG1 d5015      39.276  35.549  38.648  0.00  0.00     0.072 C 
ATOM     16  C8  LG1 d5015      39.877  33.234  41.393  0.00  0.00     0.035 A 
ATOM     17  C12 LG1 d5015      40.507  32.249  42.293  0.00  0.00     0.070 C 
ENDBRANCH   1  11
BRANCH   4  18
ATOM     18  C7  LG1 d5015      35.119  32.494  45.857  0.00  0.00     0.423 C 
ATOM     19  F4  LG1 d5015      34.017  31.789  45.468  0.00  0.00    -0.166 F 
ATOM     20  F3  LG1 d5015      34.630  33.593  46.504  0.00  0.00    -0.166 F 
ATOM     21  F5  LG1 d5015      35.717  31.737  46.822  0.00  0.00    -0.166 F 
ENDBRANCH   4  18
TORSDOF 2
ENDMDL
