REMARK INTER + INTRA:          -7.189
REMARK INTER:                  -7.024
REMARK INTRA:                  -0.165
REMARK UNBOUND:                 0.372
REMARK  1 active torsions:
REMARK  status: ('A' for Active; 'I' for Inactive)
REMARK    1  A    between atoms: C10_13  and  C11_14 
ROOT
ATOM      1  C1  LG1 d5015      36.436  33.690  43.740  0.00  0.00     0.018 C 
ATOM      2  C2  LG1 d5015      36.796  34.136  42.371  0.00  0.00     0.193 C 
ATOM      3  C3  LG1 d5015      38.201  33.875  41.992  0.00  0.00     0.049 A 
ATOM      4  C4  LG1 d5015      38.696  34.347  40.774  0.00  0.00     0.037 A 
ATOM      5  C5  LG1 d5015      40.005  34.044  40.397  0.00  0.00     0.012 A 
ATOM      6  C6  LG1 d5015      40.814  33.266  41.225  0.00  0.00     0.022 A 
ATOM      7  C7  LG1 d5015      40.317  32.792  42.440  0.00  0.00     0.039 A 
ATOM      8  C8  LG1 d5015      39.017  33.109  42.833  0.00  0.00     0.083 A 
ATOM      9  O1  LG1 d5015      38.587  32.597  44.029  0.00  0.00    -0.346 OA
ATOM     10  C9  LG1 d5015      37.580  33.398  44.656  0.00  0.00     0.218 C 
ATOM     11 BR1  LG1 d5015      40.693  34.706  38.764  0.00  0.00    -0.051 Br
ATOM     12  O2  LG1 d5015      36.012  34.678  41.606  0.00  0.00    -0.287 OA
ATOM     13  C10 LG1 d5015      35.146  33.579  44.077  0.00  0.00     0.025 C 
ENDROOT
BRANCH  13  14
ATOM     14  C11 LG1 d5015      34.675  33.158  45.363  0.00  0.00    -0.029 A 
ATOM     15  C14 LG1 d5015      34.460  31.837  45.685  0.00  0.00     0.061 A 
ATOM     16  S1  LG1 d5015      33.900  31.651  47.292  0.00  0.00    -0.113 SA
ATOM     17  C13 LG1 d5015      33.943  33.340  47.561  0.00  0.00     0.050 A 
ATOM     18  C12 LG1 d5015      34.376  34.030  46.450  0.00  0.00     0.019 A 
ENDBRANCH  13  14
TORSDOF 1
ENDMDL
