REMARK INTER + INTRA:          -7.120
REMARK INTER:                  -6.918
REMARK INTRA:                  -0.203
REMARK UNBOUND:                -0.203
REMARK  1 active torsions:
REMARK  status: ('A' for Active; 'I' for Inactive)
REMARK    1  A    between atoms: C1_1  and  N1_10 
ROOT
ATOM      1  C1  LG1 d5015      37.351  33.257  43.858  0.00  0.00     0.056 A 
ATOM      2  C2  LG1 d5015      38.443  34.108  44.026  0.00  0.00    -0.033 A 
ATOM      3  C3  LG1 d5015      39.369  34.265  42.995  0.00  0.00     0.028 A 
ATOM      4  C4  LG1 d5015      39.204  33.572  41.797  0.00  0.00     0.012 A 
ATOM      5  C5  LG1 d5015      38.111  32.719  41.629  0.00  0.00     0.028 A 
ATOM      6  C6  LG1 d5015      37.186  32.563  42.660  0.00  0.00    -0.033 A 
ATOM      7  C7  LG1 d5015      36.026  31.643  42.451  0.00  0.00     0.050 C 
ATOM      8 BR1  LG1 d5015      40.461  33.783  40.401  0.00  0.00    -0.051 Br
ATOM      9  C8  LG1 d5015      38.646  34.866  45.298  0.00  0.00     0.050 C 
ENDROOT
BRANCH   1  10
ATOM     10  N1  LG1 d5015      36.396  33.096  44.919  0.00  0.00    -0.265 N 
ATOM     11  C11 LG1 d5015      36.456  32.086  45.879  0.00  0.00     0.148 C 
ATOM     12  S2  LG1 d5015      37.676  30.990  46.225  0.00  0.00    -0.052 SA
ATOM     13  S1  LG1 d5015      35.006  32.140  46.875  0.00  0.00    -0.090 SA
ATOM     14  C10 LG1 d5015      34.454  33.708  46.204  0.00  0.00     0.185 C 
ATOM     15  C9  LG1 d5015      35.317  33.987  45.007  0.00  0.00     0.239 C 
ATOM     16  O1  LG1 d5015      35.035  34.898  44.232  0.00  0.00    -0.272 OA
ENDBRANCH   1  10
TORSDOF 1
ENDMDL
