REMARK INTER + INTRA:          -7.575
REMARK INTER:                  -7.458
REMARK INTRA:                  -0.117
REMARK UNBOUND:                 0.613
REMARK  1 active torsions:
REMARK  status: ('A' for Active; 'I' for Inactive)
REMARK    1  A    between atoms: C10_13  and  C11_14 
ROOT
ATOM      1  C1  LG1 d5015      37.412  33.384  42.168  0.00  0.00     0.018 C 
ATOM      2  C2  LG1 d5015      36.357  32.572  42.824  0.00  0.00     0.193 C 
ATOM      3  C3  LG1 d5015      36.010  33.009  44.192  0.00  0.00     0.049 A 
ATOM      4  C4  LG1 d5015      35.114  32.261  44.960  0.00  0.00     0.037 A 
ATOM      5  C5  LG1 d5015      34.745  32.714  46.227  0.00  0.00     0.012 A 
ATOM      6  C6  LG1 d5015      35.260  33.912  46.724  0.00  0.00     0.022 A 
ATOM      7  C7  LG1 d5015      36.152  34.660  45.955  0.00  0.00     0.039 A 
ATOM      8  C8  LG1 d5015      36.542  34.202  44.696  0.00  0.00     0.083 A 
ATOM      9  O1  LG1 d5015      37.407  34.993  43.988  0.00  0.00    -0.346 OA
ATOM     10  C9  LG1 d5015      38.222  34.257  43.071  0.00  0.00     0.218 C 
ATOM     11 BR1  LG1 d5015      33.556  31.691  47.284  0.00  0.00    -0.051 Br
ATOM     12  O2  LG1 d5015      35.810  31.616  42.294  0.00  0.00    -0.287 OA
ATOM     13  C10 LG1 d5015      37.583  33.294  40.844  0.00  0.00     0.025 C 
ENDROOT
BRANCH  13  14
ATOM     14  C11 LG1 d5015      38.564  34.026  40.099  0.00  0.00    -0.029 A 
ATOM     15  C14 LG1 d5015      38.253  35.130  39.339  0.00  0.00     0.061 A 
ATOM     16  S1  LG1 d5015      39.633  35.790  38.571  0.00  0.00    -0.113 SA
ATOM     17  C13 LG1 d5015      40.652  34.597  39.254  0.00  0.00     0.050 A 
ATOM     18  C12 LG1 d5015      39.954  33.717  40.051  0.00  0.00     0.019 A 
ENDBRANCH  13  14
TORSDOF 1
ENDMDL
