REMARK INTER + INTRA:          -7.979
REMARK INTER:                  -7.825
REMARK INTRA:                  -0.154
REMARK UNBOUND:                 0.372
REMARK  1 active torsions:
REMARK  status: ('A' for Active; 'I' for Inactive)
REMARK    1  A    between atoms: C10_13  and  C11_14 
ROOT
ATOM      1  C1  LG1 d5015      36.650  33.443  44.240  0.00  0.00     0.018 C 
ATOM      2  C2  LG1 d5015      37.931  33.868  43.623  0.00  0.00     0.193 C 
ATOM      3  C3  LG1 d5015      37.900  33.957  42.148  0.00  0.00     0.049 A 
ATOM      4  C4  LG1 d5015      39.070  34.236  41.438  0.00  0.00     0.037 A 
ATOM      5  C5  LG1 d5015      39.019  34.378  40.051  0.00  0.00     0.012 A 
ATOM      6  C6  LG1 d5015      37.806  34.253  39.375  0.00  0.00     0.022 A 
ATOM      7  C7  LG1 d5015      36.636  33.978  40.085  0.00  0.00     0.039 A 
ATOM      8  C8  LG1 d5015      36.684  33.813  41.469  0.00  0.00     0.083 A 
ATOM      9  O1  LG1 d5015      35.497  33.561  42.105  0.00  0.00    -0.346 OA
ATOM     10  C9  LG1 d5015      35.654  32.818  43.319  0.00  0.00     0.218 C 
ATOM     11 BR1  LG1 d5015      40.605  34.726  39.081  0.00  0.00    -0.051 Br
ATOM     12  O2  LG1 d5015      38.940  34.125  44.263  0.00  0.00    -0.287 OA
ATOM     13  C10 LG1 d5015      36.458  33.631  45.552  0.00  0.00     0.025 C 
ENDROOT
BRANCH  13  14
ATOM     14  C11 LG1 d5015      35.268  33.266  46.260  0.00  0.00    -0.029 A 
ATOM     15  C14 LG1 d5015      35.068  32.009  46.787  0.00  0.00     0.061 A 
ATOM     16  S1  LG1 d5015      33.553  31.878  47.575  0.00  0.00    -0.113 SA
ATOM     17  C13 LG1 d5015      33.162  33.504  47.212  0.00  0.00     0.050 A 
ATOM     18  C12 LG1 d5015      34.164  34.132  46.507  0.00  0.00     0.019 A 
ENDBRANCH  13  14
TORSDOF 1
ENDMDL
