@<TRIPOS>MOLECULE
/home/danieldh/ScipionUserData/projects/dcoid_1a28/Runs/000072_ProtChemImportSmallMolecules/extra/active_1a28.pdb
 53 56 0 0 0
SMALL
GASTEIGER

@<TRIPOS>ATOM
      1 C1         24.0660    9.4950   59.9400 C.3   501  LG1501501   -0.0338
      2 C2         23.7370    9.6010   58.4470 C.3   501  LG1501501   -0.0319
      3 C3         22.9520   10.9160   58.0830 C.3   501  LG1501501   -0.0195
      4 C4         22.8760   10.7210   56.5320 C.3   501  LG1501501    0.0229
      5 C5         24.2700   10.1240   56.1290 C.3   501  LG1501501   -0.0427
      6 C6         24.9210    9.5750   57.4500 C.3   501  LG1501501   -0.0488
      7 C7         22.4490   11.9700   55.7430 C.2   501  LG1501501    0.1339
      8 C8         23.2932   13.1960   55.7973 C.3   501  LG1501501   -0.0058
      9 O1         21.4293   11.9582   55.0873 O.2   501  LG1501501   -0.2974
     10 C9         23.7480   12.2280   58.4120 C.3   501  LG1501501   -0.0587
     11 C10        21.6080   10.8300   58.8400 C.3   501  LG1501501   -0.0464
     12 C11        21.8340   10.6990   60.3720 C.3   501  LG1501501   -0.0486
     13 C12        22.7170    9.4760   60.7320 C.3   501  LG1501501   -0.0288
     14 C13        22.9220    9.3500   62.2870 C.3   501  LG1501501   -0.0072
     15 C14        23.8440    8.0960   62.5740 C.2   501  LG1501501   -0.0601
     16 C15        23.5760    7.1830   63.4900 C.2   501  LG1501501   -0.0194
     17 C16        22.4560    7.3280   64.4070 C.2   501  LG1501501    0.1561
     18 C17        21.6150    8.6010   64.3920 C.3   501  LG1501501    0.0107
     19 C18        21.5310    9.1470   62.9450 C.3   501  LG1501501   -0.0367
     20 O2         22.2200    6.4510   65.2570 O.2   501  LG1501501   -0.2927
     21 C19        25.0930    7.9250   61.7160 C.3   501  LG1501501   -0.0305
     22 C20        24.8130    8.1660   60.2200 C.3   501  LG1501501   -0.0459
     23 C21        23.6650   10.5970   62.9030 C.3   501  LG1501501   -0.0556
     24 H1         24.6790   10.3200   60.2370 H     501  LG1501501    0.0307
     25 H2         23.1620    8.7060   58.3300 H     501  LG1501501    0.0309
     26 H3         22.0830   10.0530   56.2670 H     501  LG1501501    0.0383
     27 H4         24.8880   10.8860   55.7010 H     501  LG1501501    0.0272
     28 H5         24.1610    9.3480   55.4000 H     501  LG1501501    0.0272
     29 H6         25.7180   10.2080   57.7800 H     501  LG1501501    0.0268
     30 H7         25.3600    8.6060   57.3370 H     501  LG1501501    0.0268
     31 H8         22.8496   13.9605   55.1944 H     501  LG1501501    0.0306
     32 H9         24.2721   12.9724   55.4285 H     501  LG1501501    0.0306
     33 H10        23.3630   13.5357   56.8094 H     501  LG1501501    0.0306
     34 H11        24.6660   12.2350   57.8630 H     501  LG1501501    0.0235
     35 H12        23.9590   12.2640   59.4610 H     501  LG1501501    0.0235
     36 H13        23.1610   13.0790   58.1370 H     501  LG1501501    0.0235
     37 H14        21.0660    9.9760   58.4920 H     501  LG1501501    0.0271
     38 H15        21.0570   11.7280   58.6540 H     501  LG1501501    0.0271
     39 H16        20.8840   10.5910   60.8520 H     501  LG1501501    0.0268
     40 H17        22.3420   11.5800   60.7050 H     501  LG1501501    0.0268
     41 H18        22.1990    8.5910   60.4250 H     501  LG1501501    0.0312
     42 H19        24.1750    6.3450   63.5560 H     501  LG1501501    0.0652
     43 H20        20.6310    8.3820   64.7480 H     501  LG1501501    0.0345
     44 H21        22.0690    9.3350   65.0240 H     501  LG1501501    0.0345
     45 H22        20.9720    8.4550   62.3520 H     501  LG1501501    0.0278
     46 H23        21.0580   10.1060   62.9930 H     501  LG1501501    0.0278
     47 H24        25.8340    8.6240   62.0440 H     501  LG1501501    0.0310
     48 H25        25.4300    6.9160   61.8270 H     501  LG1501501    0.0310
     49 H26        25.7470    8.1860   59.6990 H     501  LG1501501    0.0271
     50 H27        24.1800    7.3710   59.8850 H     501  LG1501501    0.0271
     51 H28        24.6190   10.7120   62.4320 H     501  LG1501501    0.0238
     52 H29        23.8020   10.4470   63.9540 H     501  LG1501501    0.0238
     53 H30        23.0790   11.4770   62.7410 H     501  LG1501501    0.0238
@<TRIPOS>BOND
     1     9     7    2
     2    28     5    1
     3    31     8    1
     4    27     5    1
     5     7     8    1
     6     7     4    1
     7     5     4    1
     8     5     6    1
     9    26     4    1
    10     8    33    1
    11     8    32    1
    12     4     3    1
    13    30     6    1
    14     6    29    1
    15     6     2    1
    16    34    10    1
    17     3    10    1
    18     3     2    1
    19     3    11    1
    20    36    10    1
    21    25     2    1
    22    10    35    1
    23     2     1    1
    24    37    11    1
    25    38    11    1
    26    11    12    1
    27    49    22    1
    28    50    22    1
    29     1    22    1
    30     1    24    1
    31     1    13    1
    32    22    21    1
    33    12    40    1
    34    12    13    1
    35    12    39    1
    36    41    13    1
    37    13    14    1
    38    21    48    1
    39    21    47    1
    40    21    15    1
    41    14    15    1
    42    14    23    1
    43    14    19    1
    44    45    19    1
    45    51    23    1
    46    15    16    2
    47    53    23    1
    48    23    52    1
    49    19    46    1
    50    19    18    1
    51    16    42    1
    52    16    17    1
    53    18    17    1
    54    18    43    1
    55    18    44    1
    56    17    20    2
