REMARK INTER + INTRA:          -5.484
REMARK INTER:                  -5.286
REMARK INTRA:                  -0.199
REMARK UNBOUND:                -0.061
REMARK  1 active torsions:
REMARK  status: ('A' for Active; 'I' for Inactive)
REMARK    1  A    between atoms: C7_7  and  C4_4 
ROOT
ATOM      1  C1  LG1 d5015      38.713  -2.695  60.187  0.00  0.00    -0.004 C 
ATOM      2  C2  LG1 d5015      38.282  -1.747  61.311  0.00  0.00    -0.001 C 
ATOM      3  C3  LG1 d5015      36.900  -1.047  61.030  0.00  0.00    -0.030 C 
ATOM      4  C4  LG1 d5015      36.758  -0.261  62.375  0.00  0.00     0.063 C 
ATOM      5  C5  LG1 d5015      37.290  -1.242  63.478  0.00  0.00     0.013 C 
ATOM      6  C6  LG1 d5015      38.125  -2.345  62.731  0.00  0.00     0.006 C 
ATOM      7  C9  LG1 d5015      35.709  -2.058  60.880  0.00  0.00     0.016 C 
ATOM      8  C10 LG1 d5015      37.112  -0.186  59.765  0.00  0.00     0.011 C 
ATOM      9  C11 LG1 d5015      37.572  -1.057  58.563  0.00  0.00     0.007 C 
ATOM     10  C12 LG1 d5015      38.866  -1.853  58.877  0.00  0.00     0.002 C 
ATOM     11  C13 LG1 d5015      39.326  -2.717  57.645  0.00  0.00    -0.016 C 
ATOM     12  C14 LG1 d5015      40.635  -3.510  58.046  0.00  0.00    -0.068 C 
ATOM     13  C15 LG1 d5015      41.716  -3.573  57.289  0.00  0.00     0.053 C 
ATOM     14  C16 LG1 d5015      41.741  -3.010  55.948  0.00  0.00     0.149 C 
ATOM     15  C17 LG1 d5015      40.474  -2.413  55.345  0.00  0.00     0.084 C 
ATOM     16  C18 LG1 d5015      39.630  -1.755  56.465  0.00  0.00     0.022 C 
ATOM     17  O2  LG1 d5015      42.773  -3.077  55.257  0.00  0.00    -0.293 OA
ATOM     18  C19 LG1 d5015      40.651  -4.211  59.401  0.00  0.00     0.035 C 
ATOM     19  C20 LG1 d5015      40.089  -3.321  60.527  0.00  0.00     0.010 C 
ATOM     20  C21 LG1 d5015      38.258  -3.802  57.234  0.00  0.00     0.020 C 
ENDROOT
BRANCH   4  21
ATOM     21  C7  LG1 d5015      35.359   0.320  62.640  0.00  0.00     0.128 C 
ATOM     22  O1  LG1 d5015      34.898   1.162  61.900  0.00  0.00    -0.298 OA
ATOM     23  C8  LG1 d5015      34.573  -0.164  63.808  0.00  0.00     0.091 C 
ENDBRANCH   4  21
TORSDOF 1
ENDMDL
