REMARK INTER + INTRA:          -5.572
REMARK INTER:                  -5.370
REMARK INTRA:                  -0.202
REMARK UNBOUND:                -0.091
REMARK  1 active torsions:
REMARK  status: ('A' for Active; 'I' for Inactive)
REMARK    1  A    between atoms: C7_7  and  C4_4 
ROOT
ATOM      1  C1  LG1 d5015      39.151  -2.377  59.571  0.00  0.00    -0.004 C 
ATOM      2  C2  LG1 d5015      40.589  -2.891  59.701  0.00  0.00    -0.001 C 
ATOM      3  C3  LG1 d5015      40.694  -4.212  60.550  0.00  0.00    -0.030 C 
ATOM      4  C4  LG1 d5015      42.230  -4.468  60.394  0.00  0.00     0.063 C 
ATOM      5  C5  LG1 d5015      42.557  -4.085  58.908  0.00  0.00     0.013 C 
ATOM      6  C6  LG1 d5015      41.354  -3.214  58.395  0.00  0.00     0.006 C 
ATOM      7  C9  LG1 d5015      39.894  -5.414  59.934  0.00  0.00     0.016 C 
ATOM      8  C10 LG1 d5015      40.213  -3.843  61.970  0.00  0.00     0.011 C 
ATOM      9  C11 LG1 d5015      38.761  -3.288  61.945  0.00  0.00     0.007 C 
ATOM     10  C12 LG1 d5015      38.619  -2.061  61.008  0.00  0.00     0.002 C 
ATOM     11  C13 LG1 d5015      37.147  -1.504  61.006  0.00  0.00    -0.016 C 
ATOM     12  C14 LG1 d5015      37.076  -0.270  60.018  0.00  0.00    -0.068 C 
ATOM     13  C15 LG1 d5015      36.503   0.881  60.321  0.00  0.00     0.053 C 
ATOM     14  C16 LG1 d5015      35.770   1.064  61.565  0.00  0.00     0.149 C 
ATOM     15  C17 LG1 d5015      35.565  -0.114  62.512  0.00  0.00     0.084 C 
ATOM     16  C18 LG1 d5015      36.799  -1.048  62.449  0.00  0.00     0.022 C 
ATOM     17  O2  LG1 d5015      35.245   2.159  61.831  0.00  0.00    -0.293 OA
ATOM     18  C19 LG1 d5015      37.740  -0.418  58.653  0.00  0.00     0.035 C 
ATOM     19  C20 LG1 d5015      39.135  -1.064  58.747  0.00  0.00     0.010 C 
ATOM     20  C21 LG1 d5015      36.101  -2.558  60.476  0.00  0.00     0.020 C 
ENDROOT
BRANCH   4  21
ATOM     21  C7  LG1 d5015      42.700  -5.867  60.825  0.00  0.00     0.128 C 
ATOM     22  O1  LG1 d5015      42.598  -6.215  61.982  0.00  0.00    -0.298 OA
ATOM     23  C8  LG1 d5015      43.274  -6.794  59.810  0.00  0.00     0.091 C 
ENDBRANCH   4  21
TORSDOF 1
ENDMDL
