REMARK INTER + INTRA:          -5.756
REMARK INTER:                  -5.645
REMARK INTRA:                  -0.111
REMARK UNBOUND:                -0.202
REMARK  1 active torsions:
REMARK  status: ('A' for Active; 'I' for Inactive)
REMARK    1  A    between atoms: C7_7  and  C4_4 
ROOT
ATOM      1  C1  LG1 d5015      37.983  -1.644  58.837  0.00  0.00    -0.004 C 
ATOM      2  C2  LG1 d5015      36.896  -0.755  59.452  0.00  0.00    -0.001 C 
ATOM      3  C3  LG1 d5015      36.363  -1.300  60.829  0.00  0.00    -0.030 C 
ATOM      4  C4  LG1 d5015      35.376  -0.135  61.174  0.00  0.00     0.063 C 
ATOM      5  C5  LG1 d5015      36.115   1.172  60.719  0.00  0.00     0.013 C 
ATOM      6  C6  LG1 d5015      37.259   0.722  59.740  0.00  0.00     0.006 C 
ATOM      7  C9  LG1 d5015      37.474  -1.395  61.933  0.00  0.00     0.016 C 
ATOM      8  C10 LG1 d5015      35.712  -2.666  60.520  0.00  0.00     0.011 C 
ATOM      9  C11 LG1 d5015      36.733  -3.641  59.871  0.00  0.00     0.007 C 
ATOM     10  C12 LG1 d5015      37.362  -3.057  58.580  0.00  0.00     0.002 C 
ATOM     11  C13 LG1 d5015      38.382  -4.063  57.928  0.00  0.00    -0.016 C 
ATOM     12  C14 LG1 d5015      38.993  -3.393  56.632  0.00  0.00    -0.068 C 
ATOM     13  C15 LG1 d5015      39.098  -4.009  55.468  0.00  0.00     0.053 C 
ATOM     14  C16 LG1 d5015      38.767  -5.417  55.317  0.00  0.00     0.149 C 
ATOM     15  C17 LG1 d5015      38.378  -6.246  56.537  0.00  0.00     0.084 C 
ATOM     16  C18 LG1 d5015      37.611  -5.355  57.544  0.00  0.00     0.022 C 
ATOM     17  O2  LG1 d5015      38.867  -5.973  54.209  0.00  0.00    -0.293 OA
ATOM     18  C19 LG1 d5015      39.454  -1.943  56.735  0.00  0.00     0.035 C 
ATOM     19  C20 LG1 d5015      38.435  -1.056  57.476  0.00  0.00     0.010 C 
ATOM     20  C21 LG1 d5015      39.600  -4.390  58.875  0.00  0.00     0.020 C 
ENDROOT
BRANCH   4  21
ATOM     21  C7  LG1 d5015      34.869  -0.126  62.626  0.00  0.00     0.128 C 
ATOM     22  O1  LG1 d5015      33.942  -0.836  62.952  0.00  0.00    -0.298 OA
ATOM     23  C8  LG1 d5015      35.531   0.756  63.629  0.00  0.00     0.091 C 
ENDBRANCH   4  21
TORSDOF 1
ENDMDL
