REMARK INTER + INTRA:          -5.162
REMARK INTER:                  -5.071
REMARK INTRA:                  -0.091
REMARK UNBOUND:                -0.091
REMARK  1 active torsions:
REMARK  status: ('A' for Active; 'I' for Inactive)
REMARK    1  A    between atoms: C7_7  and  C4_4 
ROOT
ATOM      1  C1  LG1 d5015      38.609  -3.353  61.493  0.00  0.00    -0.004 C 
ATOM      2  C2  LG1 d5015      38.181  -1.948  61.928  0.00  0.00    -0.001 C 
ATOM      3  C3  LG1 d5015      37.090  -1.318  60.984  0.00  0.00    -0.030 C 
ATOM      4  C4  LG1 d5015      36.852   0.019  61.762  0.00  0.00     0.063 C 
ATOM      5  C5  LG1 d5015      36.897  -0.380  63.279  0.00  0.00     0.013 C 
ATOM      6  C6  LG1 d5015      37.593  -1.788  63.351  0.00  0.00     0.006 C 
ATOM      7  C9  LG1 d5015      35.757  -2.145  60.935  0.00  0.00     0.016 C 
ATOM      8  C10 LG1 d5015      37.758  -1.181  59.598  0.00  0.00     0.011 C 
ATOM      9  C11 LG1 d5015      38.248  -2.559  59.073  0.00  0.00     0.007 C 
ATOM     10  C12 LG1 d5015      39.226  -3.249  60.059  0.00  0.00     0.002 C 
ATOM     11  C13 LG1 d5015      39.725  -4.634  59.505  0.00  0.00    -0.016 C 
ATOM     12  C14 LG1 d5015      40.700  -5.282  60.569  0.00  0.00    -0.068 C 
ATOM     13  C15 LG1 d5015      41.871  -5.811  60.265  0.00  0.00     0.053 C 
ATOM     14  C16 LG1 d5015      42.310  -5.951  58.885  0.00  0.00     0.149 C 
ATOM     15  C17 LG1 d5015      41.371  -5.574  57.742  0.00  0.00     0.084 C 
ATOM     16  C18 LG1 d5015      40.485  -4.380  58.175  0.00  0.00     0.022 C 
ATOM     17  O2  LG1 d5015      43.421  -6.445  58.624  0.00  0.00    -0.293 OA
ATOM     18  C19 LG1 d5015      40.266  -5.261  62.031  0.00  0.00     0.035 C 
ATOM     19  C20 LG1 d5015      39.700  -3.892  62.454  0.00  0.00     0.010 C 
ATOM     20  C21 LG1 d5015      38.547  -5.662  59.298  0.00  0.00     0.020 C 
ENDROOT
BRANCH   4  21
ATOM     21  C7  LG1 d5015      35.601   0.804  61.332  0.00  0.00     0.128 C 
ATOM     22  O1  LG1 d5015      35.648   1.551  60.378  0.00  0.00    -0.298 OA
ATOM     23  C8  LG1 d5015      34.331   0.634  62.091  0.00  0.00     0.091 C 
ENDBRANCH   4  21
TORSDOF 1
ENDMDL
