MODEL 1
REMARK VINA RESULT:    -5.257      0.000      0.000
REMARK INTER + INTRA:          -5.745
REMARK INTER:                  -5.647
REMARK INTRA:                  -0.098
REMARK UNBOUND:                -0.181
REMARK  1 active torsions:
REMARK  status: ('A' for Active; 'I' for Inactive)
REMARK    1  A    between atoms: C7_7  and  C4_4 
ROOT
ATOM      1  C1  LG1 d5015      37.959  -1.666  58.849  0.00  0.00    -0.004 C 
ATOM      2  C2  LG1 d5015      36.885  -0.767  59.472  0.00  0.00    -0.001 C 
ATOM      3  C3  LG1 d5015      36.358  -1.306  60.853  0.00  0.00    -0.030 C 
ATOM      4  C4  LG1 d5015      35.384  -0.133  61.206  0.00  0.00     0.063 C 
ATOM      5  C5  LG1 d5015      36.131   1.168  60.745  0.00  0.00     0.013 C 
ATOM      6  C6  LG1 d5015      37.264   0.707  59.757  0.00  0.00     0.006 C 
ATOM      7  C9  LG1 d5015      37.476  -1.411  61.949  0.00  0.00     0.016 C 
ATOM      8  C10 LG1 d5015      35.692  -2.667  60.550  0.00  0.00     0.011 C 
ATOM      9  C11 LG1 d5015      36.700  -3.651  59.894  0.00  0.00     0.007 C 
ATOM     10  C12 LG1 d5015      37.325  -3.073  58.597  0.00  0.00     0.002 C 
ATOM     11  C13 LG1 d5015      38.330  -4.089  57.938  0.00  0.00    -0.016 C 
ATOM     12  C14 LG1 d5015      38.937  -3.424  56.637  0.00  0.00    -0.068 C 
ATOM     13  C15 LG1 d5015      39.028  -4.041  55.472  0.00  0.00     0.053 C 
ATOM     14  C16 LG1 d5015      38.683  -5.446  55.324  0.00  0.00     0.149 C 
ATOM     15  C17 LG1 d5015      38.297  -6.272  56.548  0.00  0.00     0.084 C 
ATOM     16  C18 LG1 d5015      37.545  -5.373  57.561  0.00  0.00     0.022 C 
ATOM     17  O2  LG1 d5015      38.770  -6.003  54.216  0.00  0.00    -0.293 OA
ATOM     18  C19 LG1 d5015      39.412  -1.978  56.736  0.00  0.00     0.035 C 
ATOM     19  C20 LG1 d5015      38.406  -1.082  57.485  0.00  0.00     0.010 C 
ATOM     20  C21 LG1 d5015      39.552  -4.425  58.876  0.00  0.00     0.020 C 
ENDROOT
BRANCH   4  21
ATOM     21  C7  LG1 d5015      34.888  -0.119  62.661  0.00  0.00     0.128 C 
ATOM     22  O1  LG1 d5015      33.944  -0.804  62.990  0.00  0.00    -0.298 OA
ATOM     23  C8  LG1 d5015      35.582   0.737  63.664  0.00  0.00     0.091 C 
ENDBRANCH   4  21
TORSDOF 1
ENDMDL
MODEL 2
REMARK VINA RESULT:    -5.245      4.399      5.861
REMARK INTER + INTRA:          -5.733
REMARK INTER:                  -5.583
REMARK INTRA:                  -0.149
REMARK UNBOUND:                -0.181
REMARK  1 active torsions:
REMARK  status: ('A' for Active; 'I' for Inactive)
REMARK    1  A    between atoms: C7_7  and  C4_4 
ROOT
ATOM      1  C1  LG1 d5015      39.218  -3.309  62.223  0.00  0.00    -0.004 C 
ATOM      2  C2  LG1 d5015      39.509  -3.639  63.691  0.00  0.00    -0.001 C 
ATOM      3  C3  LG1 d5015      40.739  -4.605  63.871  0.00  0.00    -0.030 C 
ATOM      4  C4  LG1 d5015      40.781  -4.641  65.435  0.00  0.00     0.063 C 
ATOM      5  C5  LG1 d5015      40.460  -3.172  65.884  0.00  0.00     0.013 C 
ATOM      6  C6  LG1 d5015      39.809  -2.457  64.645  0.00  0.00     0.006 C 
ATOM      7  C9  LG1 d5015      42.083  -4.010  63.320  0.00  0.00     0.016 C 
ATOM      8  C10 LG1 d5015      40.345  -5.927  63.176  0.00  0.00     0.011 C 
ATOM      9  C11 LG1 d5015      40.009  -5.695  61.677  0.00  0.00     0.007 C 
ATOM     10  C12 LG1 d5015      38.883  -4.646  61.484  0.00  0.00     0.002 C 
ATOM     11  C13 LG1 d5015      38.545  -4.436  59.962  0.00  0.00    -0.016 C 
ATOM     12  C14 LG1 d5015      37.406  -3.343  59.844  0.00  0.00    -0.068 C 
ATOM     13  C15 LG1 d5015      36.331  -3.482  59.089  0.00  0.00     0.053 C 
ATOM     14  C16 LG1 d5015      36.170  -4.617  58.194  0.00  0.00     0.149 C 
ATOM     15  C17 LG1 d5015      37.296  -5.634  58.037  0.00  0.00     0.084 C 
ATOM     16  C18 LG1 d5015      38.045  -5.787  59.384  0.00  0.00     0.022 C 
ATOM     17  O2  LG1 d5015      35.145  -4.729  57.497  0.00  0.00    -0.293 OA
ATOM     18  C19 LG1 d5015      37.551  -2.077  60.681  0.00  0.00     0.035 C 
ATOM     19  C20 LG1 d5015      37.982  -2.378  62.130  0.00  0.00     0.010 C 
ATOM     20  C21 LG1 d5015      39.773  -3.886  59.139  0.00  0.00     0.020 C 
ENDROOT
BRANCH   4  21
ATOM     21  C7  LG1 d5015      42.065  -5.239  66.034  0.00  0.00     0.128 C 
ATOM     22  O1  LG1 d5015      42.906  -4.514  66.520  0.00  0.00    -0.298 OA
ATOM     23  C8  LG1 d5015      42.262  -6.716  66.020  0.00  0.00     0.091 C 
ENDBRANCH   4  21
TORSDOF 1
ENDMDL
MODEL 3
REMARK VINA RESULT:    -5.025      1.817      3.059
REMARK INTER + INTRA:          -5.499
REMARK INTER:                  -5.299
REMARK INTRA:                  -0.200
REMARK UNBOUND:                -0.181
REMARK  1 active torsions:
REMARK  status: ('A' for Active; 'I' for Inactive)
REMARK    1  A    between atoms: C7_7  and  C4_4 
ROOT
ATOM      1  C1  LG1 d5015      38.690  -2.685  60.192  0.00  0.00    -0.004 C 
ATOM      2  C2  LG1 d5015      38.269  -1.735  61.319  0.00  0.00    -0.001 C 
ATOM      3  C3  LG1 d5015      36.887  -1.033  61.045  0.00  0.00    -0.030 C 
ATOM      4  C4  LG1 d5015      36.754  -0.245  62.391  0.00  0.00     0.063 C 
ATOM      5  C5  LG1 d5015      37.291  -1.228  63.491  0.00  0.00     0.013 C 
ATOM      6  C6  LG1 d5015      38.118  -2.333  62.739  0.00  0.00     0.006 C 
ATOM      7  C9  LG1 d5015      35.693  -2.041  60.903  0.00  0.00     0.016 C 
ATOM      8  C10 LG1 d5015      37.093  -0.172  59.778  0.00  0.00     0.011 C 
ATOM      9  C11 LG1 d5015      37.545  -1.045  58.574  0.00  0.00     0.007 C 
ATOM     10  C12 LG1 d5015      38.838  -1.844  58.881  0.00  0.00     0.002 C 
ATOM     11  C13 LG1 d5015      39.289  -2.709  57.647  0.00  0.00    -0.016 C 
ATOM     12  C14 LG1 d5015      40.599  -3.505  58.040  0.00  0.00    -0.068 C 
ATOM     13  C15 LG1 d5015      41.674  -3.571  57.277  0.00  0.00     0.053 C 
ATOM     14  C16 LG1 d5015      41.694  -3.008  55.936  0.00  0.00     0.149 C 
ATOM     15  C17 LG1 d5015      40.424  -2.408  55.340  0.00  0.00     0.084 C 
ATOM     16  C18 LG1 d5015      39.588  -1.748  56.464  0.00  0.00     0.022 C 
ATOM     17  O2  LG1 d5015      42.721  -3.077  55.238  0.00  0.00    -0.293 OA
ATOM     18  C19 LG1 d5015      40.620  -4.206  59.395  0.00  0.00     0.035 C 
ATOM     19  C20 LG1 d5015      40.067  -3.314  60.524  0.00  0.00     0.010 C 
ATOM     20  C21 LG1 d5015      38.216  -3.791  57.242  0.00  0.00     0.020 C 
ENDROOT
BRANCH   4  21
ATOM     21  C7  LG1 d5015      35.358   0.339  62.664  0.00  0.00     0.128 C 
ATOM     22  O1  LG1 d5015      34.900   1.189  61.932  0.00  0.00    -0.298 OA
ATOM     23  C8  LG1 d5015      34.571  -0.154  63.829  0.00  0.00     0.091 C 
ENDBRANCH   4  21
TORSDOF 1
ENDMDL
MODEL 4
REMARK VINA RESULT:    -5.022      2.875      6.924
REMARK INTER + INTRA:          -5.497
REMARK INTER:                  -5.297
REMARK INTRA:                  -0.200
REMARK UNBOUND:                -0.181
REMARK  1 active torsions:
REMARK  status: ('A' for Active; 'I' for Inactive)
REMARK    1  A    between atoms: C7_7  and  C4_4 
ROOT
ATOM      1  C1  LG1 d5015      39.192  -2.383  59.591  0.00  0.00    -0.004 C 
ATOM      2  C2  LG1 d5015      40.629  -2.897  59.725  0.00  0.00    -0.001 C 
ATOM      3  C3  LG1 d5015      40.727  -4.243  60.536  0.00  0.00    -0.030 C 
ATOM      4  C4  LG1 d5015      42.266  -4.490  60.393  0.00  0.00     0.063 C 
ATOM      5  C5  LG1 d5015      42.612  -4.062  58.924  0.00  0.00     0.013 C 
ATOM      6  C6  LG1 d5015      41.413  -3.179  58.420  0.00  0.00     0.006 C 
ATOM      7  C9  LG1 d5015      39.939  -5.427  59.874  0.00  0.00     0.016 C 
ATOM      8  C10 LG1 d5015      40.226  -3.917  61.960  0.00  0.00     0.011 C 
ATOM      9  C11 LG1 d5015      38.773  -3.366  61.931  0.00  0.00     0.007 C 
ATOM     10  C12 LG1 d5015      38.639  -2.111  61.029  0.00  0.00     0.002 C 
ATOM     11  C13 LG1 d5015      37.166  -1.558  61.024  0.00  0.00    -0.016 C 
ATOM     12  C14 LG1 d5015      37.105  -0.296  60.072  0.00  0.00    -0.068 C 
ATOM     13  C15 LG1 d5015      36.524   0.844  60.401  0.00  0.00     0.053 C 
ATOM     14  C16 LG1 d5015      35.774   0.988  61.640  0.00  0.00     0.149 C 
ATOM     15  C17 LG1 d5015      35.560  -0.218  62.549  0.00  0.00     0.084 C 
ATOM     16  C18 LG1 d5015      36.798  -1.147  62.475  0.00  0.00     0.022 C 
ATOM     17  O2  LG1 d5015      35.241   2.074  61.931  0.00  0.00    -0.293 OA
ATOM     18  C19 LG1 d5015      37.787  -0.401  58.712  0.00  0.00     0.035 C 
ATOM     19  C20 LG1 d5015      39.183  -1.047  58.806  0.00  0.00     0.010 C 
ATOM     20  C21 LG1 d5015      36.130  -2.599  60.449  0.00  0.00     0.020 C 
ENDROOT
BRANCH   4  21
ATOM     21  C7  LG1 d5015      42.735  -5.900  60.789  0.00  0.00     0.128 C 
ATOM     22  O1  LG1 d5015      42.616  -6.282  61.933  0.00  0.00    -0.298 OA
ATOM     23  C8  LG1 d5015      43.326  -6.794  59.755  0.00  0.00     0.091 C 
ENDBRANCH   4  21
TORSDOF 1
ENDMDL
MODEL 5
REMARK VINA RESULT:    -4.984      1.689      7.265
REMARK INTER + INTRA:          -5.457
REMARK INTER:                  -5.276
REMARK INTRA:                  -0.181
REMARK UNBOUND:                -0.181
REMARK  1 active torsions:
REMARK  status: ('A' for Active; 'I' for Inactive)
REMARK    1  A    between atoms: C7_7  and  C4_4 
ROOT
ATOM      1  C1  LG1 d5015      38.454  -3.038  61.121  0.00  0.00    -0.004 C 
ATOM      2  C2  LG1 d5015      38.732  -4.457  60.614  0.00  0.00    -0.001 C 
ATOM      3  C3  LG1 d5015      38.456  -4.622  59.073  0.00  0.00    -0.030 C 
ATOM      4  C4  LG1 d5015      38.916  -6.110  58.912  0.00  0.00     0.063 C 
ATOM      5  C5  LG1 d5015      40.186  -6.243  59.824  0.00  0.00     0.013 C 
ATOM      6  C6  LG1 d5015      40.161  -5.019  60.808  0.00  0.00     0.006 C 
ATOM      7  C9  LG1 d5015      39.350  -3.694  58.177  0.00  0.00     0.016 C 
ATOM      8  C10 LG1 d5015      36.946  -4.359  58.882  0.00  0.00     0.011 C 
ATOM      9  C11 LG1 d5015      36.555  -2.942  59.388  0.00  0.00     0.007 C 
ATOM     10  C12 LG1 d5015      36.941  -2.724  60.874  0.00  0.00     0.002 C 
ATOM     11  C13 LG1 d5015      36.524  -1.291  61.374  0.00  0.00    -0.016 C 
ATOM     12  C14 LG1 d5015      36.965  -1.136  62.886  0.00  0.00    -0.068 C 
ATOM     13  C15 LG1 d5015      36.179  -0.660  63.834  0.00  0.00     0.053 C 
ATOM     14  C16 LG1 d5015      34.864  -0.115  63.533  0.00  0.00     0.149 C 
ATOM     15  C17 LG1 d5015      34.400   0.006  62.085  0.00  0.00     0.084 C 
ATOM     16  C18 LG1 d5015      34.982  -1.166  61.256  0.00  0.00     0.022 C 
ATOM     17  O2  LG1 d5015      34.139   0.322  64.445  0.00  0.00    -0.293 OA
ATOM     18  C19 LG1 d5015      38.369  -1.597  63.264  0.00  0.00     0.035 C 
ATOM     19  C20 LG1 d5015      38.723  -2.963  62.646  0.00  0.00     0.010 C 
ATOM     20  C21 LG1 d5015      37.249  -0.138  60.580  0.00  0.00     0.020 C 
ENDROOT
BRANCH   4  21
ATOM     21  C7  LG1 d5015      39.105  -6.575  57.458  0.00  0.00     0.128 C 
ATOM     22  O1  LG1 d5015      38.139  -6.794  56.758  0.00  0.00    -0.298 OA
ATOM     23  C8  LG1 d5015      40.482  -6.747  56.916  0.00  0.00     0.091 C 
ENDBRANCH   4  21
TORSDOF 1
ENDMDL
