MODEL 1
REMARK VINA RESULT:    -5.380      0.000      0.000
REMARK INTER + INTRA:          -5.756
REMARK INTER:                  -5.630
REMARK INTRA:                  -0.126
REMARK UNBOUND:                -0.061
REMARK  1 active torsions:
REMARK  status: ('A' for Active; 'I' for Inactive)
REMARK    1  A    between atoms: C7_7  and  C4_4 
ROOT
ATOM      1  C1  LG1 d5015      38.015  -1.649  58.838  0.00  0.00    -0.004 C 
ATOM      2  C2  LG1 d5015      36.937  -0.750  59.453  0.00  0.00    -0.001 C 
ATOM      3  C3  LG1 d5015      36.388  -1.298  60.822  0.00  0.00    -0.030 C 
ATOM      4  C4  LG1 d5015      35.415  -0.123  61.171  0.00  0.00     0.063 C 
ATOM      5  C5  LG1 d5015      36.174   1.177  60.731  0.00  0.00     0.013 C 
ATOM      6  C6  LG1 d5015      37.318   0.720  59.755  0.00  0.00     0.006 C 
ATOM      7  C9  LG1 d5015      37.491  -1.418  61.933  0.00  0.00     0.016 C 
ATOM      8  C10 LG1 d5015      35.720  -2.653  60.499  0.00  0.00     0.011 C 
ATOM      9  C11 LG1 d5015      36.733  -3.637  59.849  0.00  0.00     0.007 C 
ATOM     10  C12 LG1 d5015      37.377  -3.051  58.566  0.00  0.00     0.002 C 
ATOM     11  C13 LG1 d5015      38.387  -4.066  57.912  0.00  0.00    -0.016 C 
ATOM     12  C14 LG1 d5015      39.015  -3.394  56.625  0.00  0.00    -0.068 C 
ATOM     13  C15 LG1 d5015      39.119  -4.002  55.457  0.00  0.00     0.053 C 
ATOM     14  C16 LG1 d5015      38.769  -5.405  55.293  0.00  0.00     0.149 C 
ATOM     15  C17 LG1 d5015      38.363  -6.238  56.504  0.00  0.00     0.084 C 
ATOM     16  C18 LG1 d5015      37.601  -5.344  57.514  0.00  0.00     0.022 C 
ATOM     17  O2  LG1 d5015      38.869  -5.953  54.181  0.00  0.00    -0.293 OA
ATOM     18  C19 LG1 d5015      39.495  -1.952  56.742  0.00  0.00     0.035 C 
ATOM     19  C20 LG1 d5015      38.483  -1.057  57.484  0.00  0.00     0.010 C 
ATOM     20  C21 LG1 d5015      39.595  -4.417  58.864  0.00  0.00     0.020 C 
ENDROOT
BRANCH   4  21
ATOM     21  C7  LG1 d5015      34.899  -0.118  62.620  0.00  0.00     0.128 C 
ATOM     22  O1  LG1 d5015      33.981  -0.840  62.943  0.00  0.00    -0.298 OA
ATOM     23  C8  LG1 d5015      35.542   0.774  63.624  0.00  0.00     0.091 C 
ENDBRANCH   4  21
TORSDOF 1
ENDMDL
MODEL 2
REMARK VINA RESULT:    -5.342      4.379      5.828
REMARK INTER + INTRA:          -5.715
REMARK INTER:                  -5.566
REMARK INTRA:                  -0.149
REMARK UNBOUND:                -0.061
REMARK  1 active torsions:
REMARK  status: ('A' for Active; 'I' for Inactive)
REMARK    1  A    between atoms: C7_7  and  C4_4 
ROOT
ATOM      1  C1  LG1 d5015      39.223  -3.259  62.183  0.00  0.00    -0.004 C 
ATOM      2  C2  LG1 d5015      39.510  -3.556  63.659  0.00  0.00    -0.001 C 
ATOM      3  C3  LG1 d5015      40.721  -4.540  63.863  0.00  0.00    -0.030 C 
ATOM      4  C4  LG1 d5015      40.766  -4.535  65.427  0.00  0.00     0.063 C 
ATOM      5  C5  LG1 d5015      40.474  -3.048  65.837  0.00  0.00     0.013 C 
ATOM      6  C6  LG1 d5015      39.835  -2.355  64.580  0.00  0.00     0.006 C 
ATOM      7  C9  LG1 d5015      42.076  -3.987  63.294  0.00  0.00     0.016 C 
ATOM      8  C10 LG1 d5015      40.300  -5.872  63.205  0.00  0.00     0.011 C 
ATOM      9  C11 LG1 d5015      39.965  -5.674  61.700  0.00  0.00     0.007 C 
ATOM     10  C12 LG1 d5015      38.860  -4.609  61.480  0.00  0.00     0.002 C 
ATOM     11  C13 LG1 d5015      38.523  -4.433  59.953  0.00  0.00    -0.016 C 
ATOM     12  C14 LG1 d5015      37.405  -3.322  59.808  0.00  0.00    -0.068 C 
ATOM     13  C15 LG1 d5015      36.327  -3.460  59.058  0.00  0.00     0.053 C 
ATOM     14  C16 LG1 d5015      36.141  -4.616  58.194  0.00  0.00     0.149 C 
ATOM     15  C17 LG1 d5015      37.248  -5.658  58.064  0.00  0.00     0.084 C 
ATOM     16  C18 LG1 d5015      37.996  -5.789  59.413  0.00  0.00     0.022 C 
ATOM     17  O2  LG1 d5015      35.114  -4.726  57.502  0.00  0.00    -0.293 OA
ATOM     18  C19 LG1 d5015      37.577  -2.037  60.611  0.00  0.00     0.035 C 
ATOM     19  C20 LG1 d5015      38.004  -2.308  62.066  0.00  0.00     0.010 C 
ATOM     20  C21 LG1 d5015      39.760  -3.930  59.115  0.00  0.00     0.020 C 
ENDROOT
BRANCH   4  21
ATOM     21  C7  LG1 d5015      42.039  -5.142  66.040  0.00  0.00     0.128 C 
ATOM     22  O1  LG1 d5015      42.902  -4.421  66.493  0.00  0.00    -0.298 OA
ATOM     23  C8  LG1 d5015      42.199  -6.622  66.081  0.00  0.00     0.091 C 
ENDBRANCH   4  21
TORSDOF 1
ENDMDL
MODEL 3
REMARK VINA RESULT:    -5.236      2.880      6.885
REMARK INTER + INTRA:          -5.603
REMARK INTER:                  -5.401
REMARK INTRA:                  -0.202
REMARK UNBOUND:                -0.061
REMARK  1 active torsions:
REMARK  status: ('A' for Active; 'I' for Inactive)
REMARK    1  A    between atoms: C7_7  and  C4_4 
ROOT
ATOM      1  C1  LG1 d5015      39.152  -2.347  59.572  0.00  0.00    -0.004 C 
ATOM      2  C2  LG1 d5015      40.584  -2.869  59.730  0.00  0.00    -0.001 C 
ATOM      3  C3  LG1 d5015      40.666  -4.187  60.586  0.00  0.00    -0.030 C 
ATOM      4  C4  LG1 d5015      42.203  -4.453  60.459  0.00  0.00     0.063 C 
ATOM      5  C5  LG1 d5015      42.559  -4.078  58.978  0.00  0.00     0.013 C 
ATOM      6  C6  LG1 d5015      41.371  -3.202  58.439  0.00  0.00     0.006 C 
ATOM      7  C9  LG1 d5015      39.870  -5.386  59.960  0.00  0.00     0.016 C 
ATOM      8  C10 LG1 d5015      40.161  -3.809  61.996  0.00  0.00     0.011 C 
ATOM      9  C11 LG1 d5015      38.713  -3.246  61.942  0.00  0.00     0.007 C 
ATOM     10  C12 LG1 d5015      38.595  -2.022  60.997  0.00  0.00     0.002 C 
ATOM     11  C13 LG1 d5015      37.127  -1.456  60.967  0.00  0.00    -0.016 C 
ATOM     12  C14 LG1 d5015      37.082  -0.226  59.972  0.00  0.00    -0.068 C 
ATOM     13  C15 LG1 d5015      36.509   0.929  60.260  0.00  0.00     0.053 C 
ATOM     14  C16 LG1 d5015      35.756   1.122  61.489  0.00  0.00     0.149 C 
ATOM     15  C17 LG1 d5015      35.526  -0.051  62.438  0.00  0.00     0.084 C 
ATOM     16  C18 LG1 d5015      36.756  -0.993  62.401  0.00  0.00     0.022 C 
ATOM     17  O2  LG1 d5015      35.231   2.221  61.741  0.00  0.00    -0.293 OA
ATOM     18  C19 LG1 d5015      37.769  -0.383  58.620  0.00  0.00     0.035 C 
ATOM     19  C20 LG1 d5015      39.159  -1.037  58.742  0.00  0.00     0.010 C 
ATOM     20  C21 LG1 d5015      36.085  -2.506  60.421  0.00  0.00     0.020 C 
ENDROOT
BRANCH   4  21
ATOM     21  C7  LG1 d5015      42.657  -5.853  60.905  0.00  0.00     0.128 C 
ATOM     22  O1  LG1 d5015      42.546  -6.190  62.064  0.00  0.00    -0.298 OA
ATOM     23  C8  LG1 d5015      43.225  -6.794  59.900  0.00  0.00     0.091 C 
ENDBRANCH   4  21
TORSDOF 1
ENDMDL
MODEL 4
REMARK VINA RESULT:    -5.124      1.806      3.038
REMARK INTER + INTRA:          -5.484
REMARK INTER:                  -5.286
REMARK INTRA:                  -0.199
REMARK UNBOUND:                -0.061
REMARK  1 active torsions:
REMARK  status: ('A' for Active; 'I' for Inactive)
REMARK    1  A    between atoms: C7_7  and  C4_4 
ROOT
ATOM      1  C1  LG1 d5015      38.713  -2.695  60.187  0.00  0.00    -0.004 C 
ATOM      2  C2  LG1 d5015      38.282  -1.747  61.311  0.00  0.00    -0.001 C 
ATOM      3  C3  LG1 d5015      36.900  -1.047  61.030  0.00  0.00    -0.030 C 
ATOM      4  C4  LG1 d5015      36.758  -0.261  62.375  0.00  0.00     0.063 C 
ATOM      5  C5  LG1 d5015      37.290  -1.242  63.478  0.00  0.00     0.013 C 
ATOM      6  C6  LG1 d5015      38.125  -2.345  62.731  0.00  0.00     0.006 C 
ATOM      7  C9  LG1 d5015      35.709  -2.058  60.880  0.00  0.00     0.016 C 
ATOM      8  C10 LG1 d5015      37.112  -0.186  59.765  0.00  0.00     0.011 C 
ATOM      9  C11 LG1 d5015      37.572  -1.057  58.563  0.00  0.00     0.007 C 
ATOM     10  C12 LG1 d5015      38.866  -1.853  58.877  0.00  0.00     0.002 C 
ATOM     11  C13 LG1 d5015      39.326  -2.717  57.645  0.00  0.00    -0.016 C 
ATOM     12  C14 LG1 d5015      40.635  -3.510  58.046  0.00  0.00    -0.068 C 
ATOM     13  C15 LG1 d5015      41.716  -3.573  57.289  0.00  0.00     0.053 C 
ATOM     14  C16 LG1 d5015      41.741  -3.010  55.948  0.00  0.00     0.149 C 
ATOM     15  C17 LG1 d5015      40.474  -2.413  55.345  0.00  0.00     0.084 C 
ATOM     16  C18 LG1 d5015      39.630  -1.755  56.465  0.00  0.00     0.022 C 
ATOM     17  O2  LG1 d5015      42.773  -3.077  55.257  0.00  0.00    -0.293 OA
ATOM     18  C19 LG1 d5015      40.651  -4.211  59.401  0.00  0.00     0.035 C 
ATOM     19  C20 LG1 d5015      40.089  -3.321  60.527  0.00  0.00     0.010 C 
ATOM     20  C21 LG1 d5015      38.258  -3.802  57.234  0.00  0.00     0.020 C 
ENDROOT
BRANCH   4  21
ATOM     21  C7  LG1 d5015      35.359   0.320  62.640  0.00  0.00     0.128 C 
ATOM     22  O1  LG1 d5015      34.898   1.162  61.900  0.00  0.00    -0.298 OA
ATOM     23  C8  LG1 d5015      34.573  -0.164  63.808  0.00  0.00     0.091 C 
ENDBRANCH   4  21
TORSDOF 1
ENDMDL
MODEL 5
REMARK VINA RESULT:    -5.115      2.782      4.166
REMARK INTER + INTRA:          -5.476
REMARK INTER:                  -5.414
REMARK INTRA:                  -0.061
REMARK UNBOUND:                -0.061
REMARK  1 active torsions:
REMARK  status: ('A' for Active; 'I' for Inactive)
REMARK    1  A    between atoms: C7_7  and  C4_4 
ROOT
ATOM      1  C1  LG1 d5015      38.664  -3.183  61.947  0.00  0.00    -0.004 C 
ATOM      2  C2  LG1 d5015      38.169  -1.768  62.265  0.00  0.00    -0.001 C 
ATOM      3  C3  LG1 d5015      37.186  -1.202  61.173  0.00  0.00    -0.030 C 
ATOM      4  C4  LG1 d5015      36.840   0.163  61.856  0.00  0.00     0.063 C 
ATOM      5  C5  LG1 d5015      36.716  -0.167  63.385  0.00  0.00     0.013 C 
ATOM      6  C6  LG1 d5015      37.418  -1.556  63.602  0.00  0.00     0.006 C 
ATOM      7  C9  LG1 d5015      35.879  -2.056  61.009  0.00  0.00     0.016 C 
ATOM      8  C10 LG1 d5015      38.007  -1.114  59.868  0.00  0.00     0.011 C 
ATOM      9  C11 LG1 d5015      38.574  -2.505  59.467  0.00  0.00     0.007 C 
ATOM     10  C12 LG1 d5015      39.442  -3.130  60.590  0.00  0.00     0.002 C 
ATOM     11  C13 LG1 d5015      40.020  -4.529  60.161  0.00  0.00    -0.016 C 
ATOM     12  C14 LG1 d5015      40.875  -5.110  61.360  0.00  0.00    -0.068 C 
ATOM     13  C15 LG1 d5015      42.081  -5.629  61.217  0.00  0.00     0.053 C 
ATOM     14  C16 LG1 d5015      42.678  -5.822  59.905  0.00  0.00     0.149 C 
ATOM     15  C17 LG1 d5015      41.873  -5.514  58.646  0.00  0.00     0.084 C 
ATOM     16  C18 LG1 d5015      40.925  -4.320  58.918  0.00  0.00     0.022 C 
ATOM     17  O2  LG1 d5015      43.819  -6.306  59.796  0.00  0.00    -0.293 OA
ATOM     18  C19 LG1 d5015      40.275  -5.032  62.760  0.00  0.00     0.035 C 
ATOM     19  C20 LG1 d5015      39.644  -3.657  63.051  0.00  0.00     0.010 C 
ATOM     20  C21 LG1 d5015      38.889  -5.588  59.869  0.00  0.00     0.020 C 
ENDROOT
BRANCH   4  21
ATOM     21  C7  LG1 d5015      35.637   0.904  61.249  0.00  0.00     0.128 C 
ATOM     22  O1  LG1 d5015      35.791   1.643  60.301  0.00  0.00    -0.298 OA
ATOM     23  C8  LG1 d5015      34.281   0.699  61.829  0.00  0.00     0.091 C 
ENDBRANCH   4  21
TORSDOF 1
ENDMDL
