REMARK INTER + INTRA:          -5.715
REMARK INTER:                  -5.566
REMARK INTRA:                  -0.149
REMARK UNBOUND:                -0.061
REMARK  1 active torsions:
REMARK  status: ('A' for Active; 'I' for Inactive)
REMARK    1  A    between atoms: C7_7  and  C4_4 
ROOT
ATOM      1  C1  LG1 d5015      39.223  -3.259  62.183  0.00  0.00    -0.004 C 
ATOM      2  C2  LG1 d5015      39.510  -3.556  63.659  0.00  0.00    -0.001 C 
ATOM      3  C3  LG1 d5015      40.721  -4.540  63.863  0.00  0.00    -0.030 C 
ATOM      4  C4  LG1 d5015      40.766  -4.535  65.427  0.00  0.00     0.063 C 
ATOM      5  C5  LG1 d5015      40.474  -3.048  65.837  0.00  0.00     0.013 C 
ATOM      6  C6  LG1 d5015      39.835  -2.355  64.580  0.00  0.00     0.006 C 
ATOM      7  C9  LG1 d5015      42.076  -3.987  63.294  0.00  0.00     0.016 C 
ATOM      8  C10 LG1 d5015      40.300  -5.872  63.205  0.00  0.00     0.011 C 
ATOM      9  C11 LG1 d5015      39.965  -5.674  61.700  0.00  0.00     0.007 C 
ATOM     10  C12 LG1 d5015      38.860  -4.609  61.480  0.00  0.00     0.002 C 
ATOM     11  C13 LG1 d5015      38.523  -4.433  59.953  0.00  0.00    -0.016 C 
ATOM     12  C14 LG1 d5015      37.405  -3.322  59.808  0.00  0.00    -0.068 C 
ATOM     13  C15 LG1 d5015      36.327  -3.460  59.058  0.00  0.00     0.053 C 
ATOM     14  C16 LG1 d5015      36.141  -4.616  58.194  0.00  0.00     0.149 C 
ATOM     15  C17 LG1 d5015      37.248  -5.658  58.064  0.00  0.00     0.084 C 
ATOM     16  C18 LG1 d5015      37.996  -5.789  59.413  0.00  0.00     0.022 C 
ATOM     17  O2  LG1 d5015      35.114  -4.726  57.502  0.00  0.00    -0.293 OA
ATOM     18  C19 LG1 d5015      37.577  -2.037  60.611  0.00  0.00     0.035 C 
ATOM     19  C20 LG1 d5015      38.004  -2.308  62.066  0.00  0.00     0.010 C 
ATOM     20  C21 LG1 d5015      39.760  -3.930  59.115  0.00  0.00     0.020 C 
ENDROOT
BRANCH   4  21
ATOM     21  C7  LG1 d5015      42.039  -5.142  66.040  0.00  0.00     0.128 C 
ATOM     22  O1  LG1 d5015      42.902  -4.421  66.493  0.00  0.00    -0.298 OA
ATOM     23  C8  LG1 d5015      42.199  -6.622  66.081  0.00  0.00     0.091 C 
ENDBRANCH   4  21
TORSDOF 1
ENDMDL
