REMARK INTER + INTRA:          -5.718
REMARK INTER:                  -5.569
REMARK INTRA:                  -0.149
REMARK UNBOUND:                -0.202
REMARK  1 active torsions:
REMARK  status: ('A' for Active; 'I' for Inactive)
REMARK    1  A    between atoms: C7_7  and  C4_4 
ROOT
ATOM      1  C1  LG1 d5015      39.229  -3.283  62.190  0.00  0.00    -0.004 C 
ATOM      2  C2  LG1 d5015      39.506  -3.610  63.662  0.00  0.00    -0.001 C 
ATOM      3  C3  LG1 d5015      40.732  -4.578  63.856  0.00  0.00    -0.030 C 
ATOM      4  C4  LG1 d5015      40.760  -4.609  65.420  0.00  0.00     0.063 C 
ATOM      5  C5  LG1 d5015      40.439  -3.137  65.861  0.00  0.00     0.013 C 
ATOM      6  C6  LG1 d5015      39.801  -2.425  64.614  0.00  0.00     0.006 C 
ATOM      7  C9  LG1 d5015      42.082  -3.989  63.315  0.00  0.00     0.016 C 
ATOM      8  C10 LG1 d5015      40.340  -5.901  63.162  0.00  0.00     0.011 C 
ATOM      9  C11 LG1 d5015      40.017  -5.674  61.659  0.00  0.00     0.007 C 
ATOM     10  C12 LG1 d5015      38.896  -4.622  61.453  0.00  0.00     0.002 C 
ATOM     11  C13 LG1 d5015      38.572  -4.416  59.927  0.00  0.00    -0.016 C 
ATOM     12  C14 LG1 d5015      37.437  -3.321  59.796  0.00  0.00    -0.068 C 
ATOM     13  C15 LG1 d5015      36.369  -3.459  59.031  0.00  0.00     0.053 C 
ATOM     14  C16 LG1 d5015      36.212  -4.597  58.138  0.00  0.00     0.149 C 
ATOM     15  C17 LG1 d5015      37.337  -5.618  57.995  0.00  0.00     0.084 C 
ATOM     16  C18 LG1 d5015      38.074  -5.768  59.350  0.00  0.00     0.022 C 
ATOM     17  O2  LG1 d5015      35.194  -4.708  57.433  0.00  0.00    -0.293 OA
ATOM     18  C19 LG1 d5015      37.579  -2.052  60.629  0.00  0.00     0.035 C 
ATOM     19  C20 LG1 d5015      37.996  -2.350  62.083  0.00  0.00     0.010 C 
ATOM     20  C21 LG1 d5015      39.809  -3.873  59.113  0.00  0.00     0.020 C 
ENDROOT
BRANCH   4  21
ATOM     21  C7  LG1 d5015      42.036  -5.209  66.033  0.00  0.00     0.128 C 
ATOM     22  O1  LG1 d5015      42.883  -4.484  66.511  0.00  0.00    -0.298 OA
ATOM     23  C8  LG1 d5015      42.220  -6.687  66.042  0.00  0.00     0.091 C 
ENDBRANCH   4  21
TORSDOF 1
ENDMDL
