REMARK INTER + INTRA:          -5.514
REMARK INTER:                  -5.370
REMARK INTRA:                  -0.144
REMARK UNBOUND:                -0.202
REMARK  1 active torsions:
REMARK  status: ('A' for Active; 'I' for Inactive)
REMARK    1  A    between atoms: C7_7  and  C4_4 
ROOT
ATOM      1  C1  LG1 d5015      39.176  -2.533  59.817  0.00  0.00    -0.004 C 
ATOM      2  C2  LG1 d5015      40.610  -3.043  59.993  0.00  0.00    -0.001 C 
ATOM      3  C3  LG1 d5015      40.706  -4.287  60.953  0.00  0.00    -0.030 C 
ATOM      4  C4  LG1 d5015      42.241  -4.565  60.822  0.00  0.00     0.063 C 
ATOM      5  C5  LG1 d5015      42.572  -4.314  59.309  0.00  0.00     0.013 C 
ATOM      6  C6  LG1 d5015      41.375  -3.482  58.721  0.00  0.00     0.006 C 
ATOM      7  C9  LG1 d5015      39.898  -5.532  60.441  0.00  0.00     0.016 C 
ATOM      8  C10 LG1 d5015      40.225  -3.794  62.335  0.00  0.00     0.011 C 
ATOM      9  C11 LG1 d5015      38.777  -3.235  62.259  0.00  0.00     0.007 C 
ATOM     10  C12 LG1 d5015      38.644  -2.091  61.220  0.00  0.00     0.002 C 
ATOM     11  C13 LG1 d5015      37.176  -1.527  61.168  0.00  0.00    -0.016 C 
ATOM     12  C14 LG1 d5015      37.115  -0.382  60.077  0.00  0.00    -0.068 C 
ATOM     13  C15 LG1 d5015      36.548   0.794  60.279  0.00  0.00     0.053 C 
ATOM     14  C16 LG1 d5015      35.816   1.088  61.501  0.00  0.00     0.149 C 
ATOM     15  C17 LG1 d5015      35.602  -0.003  62.546  0.00  0.00     0.084 C 
ATOM     16  C18 LG1 d5015      36.829  -0.947  62.565  0.00  0.00     0.022 C 
ATOM     17  O2  LG1 d5015      35.296   2.206  61.671  0.00  0.00    -0.293 OA
ATOM     18  C19 LG1 d5015      37.779  -0.651  58.731  0.00  0.00     0.035 C 
ATOM     19  C20 LG1 d5015      39.170  -1.296  58.883  0.00  0.00     0.010 C 
ATOM     20  C21 LG1 d5015      36.124  -2.616  60.728  0.00  0.00     0.020 C 
ENDROOT
BRANCH   4  21
ATOM     21  C7  LG1 d5015      42.701  -5.926  61.373  0.00  0.00     0.128 C 
ATOM     22  O1  LG1 d5015      43.079  -6.794  60.616  0.00  0.00    -0.298 OA
ATOM     23  C8  LG1 d5015      42.686  -6.164  62.843  0.00  0.00     0.091 C 
ENDBRANCH   4  21
TORSDOF 1
ENDMDL
