REMARK INTER + INTRA:          -5.745
REMARK INTER:                  -5.647
REMARK INTRA:                  -0.098
REMARK UNBOUND:                -0.181
REMARK  1 active torsions:
REMARK  status: ('A' for Active; 'I' for Inactive)
REMARK    1  A    between atoms: C7_7  and  C4_4 
ROOT
ATOM      1  C1  LG1 d5015      37.959  -1.666  58.849  0.00  0.00    -0.004 C 
ATOM      2  C2  LG1 d5015      36.885  -0.767  59.472  0.00  0.00    -0.001 C 
ATOM      3  C3  LG1 d5015      36.358  -1.306  60.853  0.00  0.00    -0.030 C 
ATOM      4  C4  LG1 d5015      35.384  -0.133  61.206  0.00  0.00     0.063 C 
ATOM      5  C5  LG1 d5015      36.131   1.168  60.745  0.00  0.00     0.013 C 
ATOM      6  C6  LG1 d5015      37.264   0.707  59.757  0.00  0.00     0.006 C 
ATOM      7  C9  LG1 d5015      37.476  -1.411  61.949  0.00  0.00     0.016 C 
ATOM      8  C10 LG1 d5015      35.692  -2.667  60.550  0.00  0.00     0.011 C 
ATOM      9  C11 LG1 d5015      36.700  -3.651  59.894  0.00  0.00     0.007 C 
ATOM     10  C12 LG1 d5015      37.325  -3.073  58.597  0.00  0.00     0.002 C 
ATOM     11  C13 LG1 d5015      38.330  -4.089  57.938  0.00  0.00    -0.016 C 
ATOM     12  C14 LG1 d5015      38.937  -3.424  56.637  0.00  0.00    -0.068 C 
ATOM     13  C15 LG1 d5015      39.028  -4.041  55.472  0.00  0.00     0.053 C 
ATOM     14  C16 LG1 d5015      38.683  -5.446  55.324  0.00  0.00     0.149 C 
ATOM     15  C17 LG1 d5015      38.297  -6.272  56.548  0.00  0.00     0.084 C 
ATOM     16  C18 LG1 d5015      37.545  -5.373  57.561  0.00  0.00     0.022 C 
ATOM     17  O2  LG1 d5015      38.770  -6.003  54.216  0.00  0.00    -0.293 OA
ATOM     18  C19 LG1 d5015      39.412  -1.978  56.736  0.00  0.00     0.035 C 
ATOM     19  C20 LG1 d5015      38.406  -1.082  57.485  0.00  0.00     0.010 C 
ATOM     20  C21 LG1 d5015      39.552  -4.425  58.876  0.00  0.00     0.020 C 
ENDROOT
BRANCH   4  21
ATOM     21  C7  LG1 d5015      34.888  -0.119  62.661  0.00  0.00     0.128 C 
ATOM     22  O1  LG1 d5015      33.944  -0.804  62.990  0.00  0.00    -0.298 OA
ATOM     23  C8  LG1 d5015      35.582   0.737  63.664  0.00  0.00     0.091 C 
ENDBRANCH   4  21
TORSDOF 1
ENDMDL
