REMARK INTER + INTRA:          -5.735
REMARK INTER:                  -5.589
REMARK INTRA:                  -0.146
REMARK UNBOUND:                -0.091
REMARK  1 active torsions:
REMARK  status: ('A' for Active; 'I' for Inactive)
REMARK    1  A    between atoms: C7_7  and  C4_4 
ROOT
ATOM      1  C1  LG1 d5015      39.205  -3.278  62.229  0.00  0.00    -0.004 C 
ATOM      2  C2  LG1 d5015      39.491  -3.597  63.700  0.00  0.00    -0.001 C 
ATOM      3  C3  LG1 d5015      40.719  -4.563  63.892  0.00  0.00    -0.030 C 
ATOM      4  C4  LG1 d5015      40.755  -4.586  65.457  0.00  0.00     0.063 C 
ATOM      5  C5  LG1 d5015      40.435  -3.113  65.892  0.00  0.00     0.013 C 
ATOM      6  C6  LG1 d5015      39.789  -2.408  64.645  0.00  0.00     0.006 C 
ATOM      7  C9  LG1 d5015      42.066  -3.975  63.341  0.00  0.00     0.016 C 
ATOM      8  C10 LG1 d5015      40.325  -5.890  63.207  0.00  0.00     0.011 C 
ATOM      9  C11 LG1 d5015      39.994  -5.670  61.705  0.00  0.00     0.007 C 
ATOM     10  C12 LG1 d5015      38.871  -4.621  61.499  0.00  0.00     0.002 C 
ATOM     11  C13 LG1 d5015      38.539  -4.423  59.974  0.00  0.00    -0.016 C 
ATOM     12  C14 LG1 d5015      37.401  -3.330  59.844  0.00  0.00    -0.068 C 
ATOM     13  C15 LG1 d5015      36.330  -3.473  59.085  0.00  0.00     0.053 C 
ATOM     14  C16 LG1 d5015      36.169  -4.616  58.199  0.00  0.00     0.149 C 
ATOM     15  C17 LG1 d5015      37.295  -5.636  58.055  0.00  0.00     0.084 C 
ATOM     16  C18 LG1 d5015      38.039  -5.778  59.406  0.00  0.00     0.022 C 
ATOM     17  O2  LG1 d5015      35.147  -4.732  57.500  0.00  0.00    -0.293 OA
ATOM     18  C19 LG1 d5015      37.546  -2.057  60.671  0.00  0.00     0.035 C 
ATOM     19  C20 LG1 d5015      37.971  -2.347  62.123  0.00  0.00     0.010 C 
ATOM     20  C21 LG1 d5015      39.770  -3.882  59.151  0.00  0.00     0.020 C 
ENDROOT
BRANCH   4  21
ATOM     21  C7  LG1 d5015      42.036  -5.182  66.065  0.00  0.00     0.128 C 
ATOM     22  O1  LG1 d5015      42.888  -4.453  66.527  0.00  0.00    -0.298 OA
ATOM     23  C8  LG1 d5015      42.218  -6.660  66.091  0.00  0.00     0.091 C 
ENDBRANCH   4  21
TORSDOF 1
ENDMDL
