REMARK INTER + INTRA:          -5.750
REMARK INTER:                  -5.656
REMARK INTRA:                  -0.095
REMARK UNBOUND:                -0.202
REMARK  1 active torsions:
REMARK  status: ('A' for Active; 'I' for Inactive)
REMARK    1  A    between atoms: C7_7  and  C4_4 
ROOT
ATOM      1  C1  LG1 d5015      37.972  -1.639  58.836  0.00  0.00    -0.004 C 
ATOM      2  C2  LG1 d5015      36.895  -0.743  59.456  0.00  0.00    -0.001 C 
ATOM      3  C3  LG1 d5015      36.359  -1.288  60.832  0.00  0.00    -0.030 C 
ATOM      4  C4  LG1 d5015      35.383  -0.115  61.184  0.00  0.00     0.063 C 
ATOM      5  C5  LG1 d5015      36.134   1.186  60.733  0.00  0.00     0.013 C 
ATOM      6  C6  LG1 d5015      37.273   0.730  59.750  0.00  0.00     0.006 C 
ATOM      7  C9  LG1 d5015      37.470  -1.399  61.934  0.00  0.00     0.016 C 
ATOM      8  C10 LG1 d5015      35.694  -2.647  60.518  0.00  0.00     0.011 C 
ATOM      9  C11 LG1 d5015      36.705  -3.629  59.864  0.00  0.00     0.007 C 
ATOM     10  C12 LG1 d5015      37.338  -3.045  58.574  0.00  0.00     0.002 C 
ATOM     11  C13 LG1 d5015      38.346  -4.059  57.916  0.00  0.00    -0.016 C 
ATOM     12  C14 LG1 d5015      38.962  -3.388  56.622  0.00  0.00    -0.068 C 
ATOM     13  C15 LG1 d5015      39.060  -4.000  55.455  0.00  0.00     0.053 C 
ATOM     14  C16 LG1 d5015      38.715  -5.405  55.299  0.00  0.00     0.149 C 
ATOM     15  C17 LG1 d5015      38.320  -6.235  56.516  0.00  0.00     0.084 C 
ATOM     16  C18 LG1 d5015      37.562  -5.341  57.528  0.00  0.00     0.022 C 
ATOM     17  O2  LG1 d5015      38.808  -5.957  54.188  0.00  0.00    -0.293 OA
ATOM     18  C19 LG1 d5015      39.437  -1.944  56.731  0.00  0.00     0.035 C 
ATOM     19  C20 LG1 d5015      38.428  -1.050  57.477  0.00  0.00     0.010 C 
ATOM     20  C21 LG1 d5015      39.563  -4.401  58.860  0.00  0.00     0.020 C 
ENDROOT
BRANCH   4  21
ATOM     21  C7  LG1 d5015      34.879  -0.107  62.636  0.00  0.00     0.128 C 
ATOM     22  O1  LG1 d5015      33.930  -0.791  62.956  0.00  0.00    -0.298 OA
ATOM     23  C8  LG1 d5015      35.570   0.740  63.648  0.00  0.00     0.091 C 
ENDBRANCH   4  21
TORSDOF 1
ENDMDL
