REMARK INTER + INTRA:          -5.728
REMARK INTER:                  -5.581
REMARK INTRA:                  -0.147
REMARK UNBOUND:                -0.202
REMARK  1 active torsions:
REMARK  status: ('A' for Active; 'I' for Inactive)
REMARK    1  A    between atoms: C7_7  and  C4_4 
ROOT
ATOM      1  C1  LG1 d5015      39.223  -3.270  62.209  0.00  0.00    -0.004 C 
ATOM      2  C2  LG1 d5015      39.506  -3.584  63.682  0.00  0.00    -0.001 C 
ATOM      3  C3  LG1 d5015      40.725  -4.560  63.879  0.00  0.00    -0.030 C 
ATOM      4  C4  LG1 d5015      40.762  -4.576  65.443  0.00  0.00     0.063 C 
ATOM      5  C5  LG1 d5015      40.454  -3.098  65.872  0.00  0.00     0.013 C 
ATOM      6  C6  LG1 d5015      39.815  -2.393  64.621  0.00  0.00     0.006 C 
ATOM      7  C9  LG1 d5015      42.077  -3.986  63.325  0.00  0.00     0.016 C 
ATOM      8  C10 LG1 d5015      40.319  -5.887  63.200  0.00  0.00     0.011 C 
ATOM      9  C11 LG1 d5015      39.990  -5.671  61.697  0.00  0.00     0.007 C 
ATOM     10  C12 LG1 d5015      38.876  -4.613  61.486  0.00  0.00     0.002 C 
ATOM     11  C13 LG1 d5015      38.545  -4.419  59.960  0.00  0.00    -0.016 C 
ATOM     12  C14 LG1 d5015      37.418  -3.317  59.825  0.00  0.00    -0.068 C 
ATOM     13  C15 LG1 d5015      36.345  -3.454  59.068  0.00  0.00     0.053 C 
ATOM     14  C16 LG1 d5015      36.174  -4.600  58.187  0.00  0.00     0.149 C 
ATOM     15  C17 LG1 d5015      37.290  -5.630  58.047  0.00  0.00     0.084 C 
ATOM     16  C18 LG1 d5015      38.033  -5.773  59.399  0.00  0.00     0.022 C 
ATOM     17  O2  LG1 d5015      35.151  -4.710  57.488  0.00  0.00    -0.293 OA
ATOM     18  C19 LG1 d5015      37.574  -2.041  60.646  0.00  0.00     0.035 C 
ATOM     19  C20 LG1 d5015      37.996  -2.328  62.099  0.00  0.00     0.010 C 
ATOM     20  C21 LG1 d5015      39.781  -3.893  59.135  0.00  0.00     0.020 C 
ENDROOT
BRANCH   4  21
ATOM     21  C7  LG1 d5015      42.037  -5.180  66.054  0.00  0.00     0.128 C 
ATOM     22  O1  LG1 d5015      42.890  -4.456  66.524  0.00  0.00    -0.298 OA
ATOM     23  C8  LG1 d5015      42.213  -6.659  66.072  0.00  0.00     0.091 C 
ENDBRANCH   4  21
TORSDOF 1
ENDMDL
