REMARK INTER + INTRA:          -5.129
REMARK INTER:                  -4.934
REMARK INTRA:                  -0.196
REMARK UNBOUND:                -0.202
REMARK  1 active torsions:
REMARK  status: ('A' for Active; 'I' for Inactive)
REMARK    1  A    between atoms: C7_7  and  C4_4 
ROOT
ATOM      1  C1  LG1 d5015      38.370  -1.011  59.752  0.00  0.00    -0.004 C 
ATOM      2  C2  LG1 d5015      38.396  -2.515  60.045  0.00  0.00    -0.001 C 
ATOM      3  C3  LG1 d5015      39.630  -3.246  59.396  0.00  0.00    -0.030 C 
ATOM      4  C4  LG1 d5015      39.374  -4.683  59.962  0.00  0.00     0.063 C 
ATOM      5  C5  LG1 d5015      38.877  -4.458  61.433  0.00  0.00     0.013 C 
ATOM      6  C6  LG1 d5015      38.430  -2.954  61.529  0.00  0.00     0.006 C 
ATOM      7  C9  LG1 d5015      41.013  -2.713  59.914  0.00  0.00     0.016 C 
ATOM      8  C10 LG1 d5015      39.464  -3.083  57.869  0.00  0.00     0.011 C 
ATOM      9  C11 LG1 d5015      39.406  -1.583  57.468  0.00  0.00     0.007 C 
ATOM     10  C12 LG1 d5015      38.272  -0.823  58.202  0.00  0.00     0.002 C 
ATOM     11  C13 LG1 d5015      38.218   0.690  57.772  0.00  0.00    -0.016 C 
ATOM     12  C14 LG1 d5015      37.053   1.401  58.573  0.00  0.00    -0.068 C 
ATOM     13  C15 LG1 d5015      36.155   2.192  58.014  0.00  0.00     0.053 C 
ATOM     14  C16 LG1 d5015      36.243   2.576  56.613  0.00  0.00     0.149 C 
ATOM     15  C17 LG1 d5015      37.443   2.144  55.776  0.00  0.00     0.084 C 
ATOM     16  C18 LG1 d5015      37.928   0.751  56.248  0.00  0.00     0.022 C 
ATOM     17  O2  LG1 d5015      35.380   3.316  56.108  0.00  0.00    -0.293 OA
ATOM     18  C19 LG1 d5015      36.953   1.125  60.069  0.00  0.00     0.035 C 
ATOM     19  C20 LG1 d5015      37.117  -0.371  60.401  0.00  0.00     0.010 C 
ATOM     20  C21 LG1 d5015      39.542   1.469  58.129  0.00  0.00     0.020 C 
ENDROOT
BRANCH   4  21
ATOM     21  C7  LG1 d5015      40.556  -5.656  59.815  0.00  0.00     0.128 C 
ATOM     22  O1  LG1 d5015      40.862  -6.082  58.722  0.00  0.00    -0.298 OA
ATOM     23  C8  LG1 d5015      41.325  -6.064  61.024  0.00  0.00     0.091 C 
ENDBRANCH   4  21
TORSDOF 1
ENDMDL
