REMARK INTER + INTRA:          -5.492
REMARK INTER:                  -5.293
REMARK INTRA:                  -0.198
REMARK UNBOUND:                -0.091
REMARK  1 active torsions:
REMARK  status: ('A' for Active; 'I' for Inactive)
REMARK    1  A    between atoms: C7_7  and  C4_4 
ROOT
ATOM      1  C1  LG1 d5015      38.696  -2.624  60.134  0.00  0.00    -0.004 C 
ATOM      2  C2  LG1 d5015      38.267  -1.705  61.282  0.00  0.00    -0.001 C 
ATOM      3  C3  LG1 d5015      36.884  -0.999  61.020  0.00  0.00    -0.030 C 
ATOM      4  C4  LG1 d5015      36.744  -0.246  62.385  0.00  0.00     0.063 C 
ATOM      5  C5  LG1 d5015      37.278  -1.255  63.462  0.00  0.00     0.013 C 
ATOM      6  C6  LG1 d5015      38.112  -2.338  62.686  0.00  0.00     0.006 C 
ATOM      7  C9  LG1 d5015      35.693  -2.007  60.848  0.00  0.00     0.016 C 
ATOM      8  C10 LG1 d5015      37.093  -0.107  59.777  0.00  0.00     0.011 C 
ATOM      9  C11 LG1 d5015      37.552  -0.948  58.553  0.00  0.00     0.007 C 
ATOM     10  C12 LG1 d5015      38.846  -1.750  58.845  0.00  0.00     0.002 C 
ATOM     11  C13 LG1 d5015      39.305  -2.583  57.591  0.00  0.00    -0.016 C 
ATOM     12  C14 LG1 d5015      40.615  -3.385  57.970  0.00  0.00    -0.068 C 
ATOM     13  C15 LG1 d5015      41.694  -3.429  57.210  0.00  0.00     0.053 C 
ATOM     14  C16 LG1 d5015      41.717  -2.833  55.883  0.00  0.00     0.149 C 
ATOM     15  C17 LG1 d5015      40.448  -2.221  55.297  0.00  0.00     0.084 C 
ATOM     16  C18 LG1 d5015      39.606  -1.592  56.435  0.00  0.00     0.022 C 
ATOM     17  O2  LG1 d5015      42.748  -2.881  55.188  0.00  0.00    -0.293 OA
ATOM     18  C19 LG1 d5015      40.633  -4.119  59.307  0.00  0.00     0.035 C 
ATOM     19  C20 LG1 d5015      40.073  -3.258  60.455  0.00  0.00     0.010 C 
ATOM     20  C21 LG1 d5015      38.237  -3.657  57.154  0.00  0.00     0.020 C 
ENDROOT
BRANCH   4  21
ATOM     21  C7  LG1 d5015      35.345   0.327  62.667  0.00  0.00     0.128 C 
ATOM     22  O1  LG1 d5015      34.880   1.184  61.945  0.00  0.00    -0.298 OA
ATOM     23  C8  LG1 d5015      34.563  -0.183  63.827  0.00  0.00     0.091 C 
ENDBRANCH   4  21
TORSDOF 1
ENDMDL
