REMARK INTER + INTRA:          -5.144
REMARK INTER:                  -4.939
REMARK INTRA:                  -0.205
REMARK UNBOUND:                -0.202
REMARK  1 active torsions:
REMARK  status: ('A' for Active; 'I' for Inactive)
REMARK    1  A    between atoms: C7_7  and  C4_4 
ROOT
ATOM      1  C1  LG1 d5015      38.369  -1.019  59.790  0.00  0.00    -0.004 C 
ATOM      2  C2  LG1 d5015      38.402  -2.525  60.067  0.00  0.00    -0.001 C 
ATOM      3  C3  LG1 d5015      39.645  -3.242  59.421  0.00  0.00    -0.030 C 
ATOM      4  C4  LG1 d5015      39.394  -4.686  59.969  0.00  0.00     0.063 C 
ATOM      5  C5  LG1 d5015      38.884  -4.480  61.439  0.00  0.00     0.013 C 
ATOM      6  C6  LG1 d5015      38.427  -2.980  61.547  0.00  0.00     0.006 C 
ATOM      7  C9  LG1 d5015      41.021  -2.707  59.954  0.00  0.00     0.016 C 
ATOM      8  C10 LG1 d5015      39.489  -3.064  57.894  0.00  0.00     0.011 C 
ATOM      9  C11 LG1 d5015      39.426  -1.560  57.508  0.00  0.00     0.007 C 
ATOM     10  C12 LG1 d5015      38.281  -0.814  58.241  0.00  0.00     0.002 C 
ATOM     11  C13 LG1 d5015      38.222   0.702  57.826  0.00  0.00    -0.016 C 
ATOM     12  C14 LG1 d5015      37.047   1.398  58.626  0.00  0.00    -0.068 C 
ATOM     13  C15 LG1 d5015      36.148   2.189  58.068  0.00  0.00     0.053 C 
ATOM     14  C16 LG1 d5015      36.244   2.588  56.673  0.00  0.00     0.149 C 
ATOM     15  C17 LG1 d5015      37.453   2.172  55.840  0.00  0.00     0.084 C 
ATOM     16  C18 LG1 d5015      37.943   0.778  56.301  0.00  0.00     0.022 C 
ATOM     17  O2  LG1 d5015      35.381   3.329  56.168  0.00  0.00    -0.293 OA
ATOM     18  C19 LG1 d5015      36.936   1.105  60.119  0.00  0.00     0.035 C 
ATOM     19  C20 LG1 d5015      37.107  -0.393  60.435  0.00  0.00     0.010 C 
ATOM     20  C21 LG1 d5015      39.538   1.485  58.202  0.00  0.00     0.020 C 
ENDROOT
BRANCH   4  21
ATOM     21  C7  LG1 d5015      40.582  -5.651  59.821  0.00  0.00     0.128 C 
ATOM     22  O1  LG1 d5015      40.941  -6.012  58.721  0.00  0.00    -0.298 OA
ATOM     23  C8  LG1 d5015      41.294  -6.130  61.039  0.00  0.00     0.091 C 
ENDBRANCH   4  21
TORSDOF 1
ENDMDL
