MODEL 1
REMARK VINA RESULT:    -5.242      0.000      0.000
REMARK INTER + INTRA:          -5.750
REMARK INTER:                  -5.656
REMARK INTRA:                  -0.095
REMARK UNBOUND:                -0.202
REMARK  1 active torsions:
REMARK  status: ('A' for Active; 'I' for Inactive)
REMARK    1  A    between atoms: C7_7  and  C4_4 
ROOT
ATOM      1  C1  LG1 d5015      37.972  -1.639  58.836  0.00  0.00    -0.004 C 
ATOM      2  C2  LG1 d5015      36.895  -0.743  59.456  0.00  0.00    -0.001 C 
ATOM      3  C3  LG1 d5015      36.359  -1.288  60.832  0.00  0.00    -0.030 C 
ATOM      4  C4  LG1 d5015      35.383  -0.115  61.184  0.00  0.00     0.063 C 
ATOM      5  C5  LG1 d5015      36.134   1.186  60.733  0.00  0.00     0.013 C 
ATOM      6  C6  LG1 d5015      37.273   0.730  59.750  0.00  0.00     0.006 C 
ATOM      7  C9  LG1 d5015      37.470  -1.399  61.934  0.00  0.00     0.016 C 
ATOM      8  C10 LG1 d5015      35.694  -2.647  60.518  0.00  0.00     0.011 C 
ATOM      9  C11 LG1 d5015      36.705  -3.629  59.864  0.00  0.00     0.007 C 
ATOM     10  C12 LG1 d5015      37.338  -3.045  58.574  0.00  0.00     0.002 C 
ATOM     11  C13 LG1 d5015      38.346  -4.059  57.916  0.00  0.00    -0.016 C 
ATOM     12  C14 LG1 d5015      38.962  -3.388  56.622  0.00  0.00    -0.068 C 
ATOM     13  C15 LG1 d5015      39.060  -4.000  55.455  0.00  0.00     0.053 C 
ATOM     14  C16 LG1 d5015      38.715  -5.405  55.299  0.00  0.00     0.149 C 
ATOM     15  C17 LG1 d5015      38.320  -6.235  56.516  0.00  0.00     0.084 C 
ATOM     16  C18 LG1 d5015      37.562  -5.341  57.528  0.00  0.00     0.022 C 
ATOM     17  O2  LG1 d5015      38.808  -5.957  54.188  0.00  0.00    -0.293 OA
ATOM     18  C19 LG1 d5015      39.437  -1.944  56.731  0.00  0.00     0.035 C 
ATOM     19  C20 LG1 d5015      38.428  -1.050  57.477  0.00  0.00     0.010 C 
ATOM     20  C21 LG1 d5015      39.563  -4.401  58.860  0.00  0.00     0.020 C 
ENDROOT
BRANCH   4  21
ATOM     21  C7  LG1 d5015      34.879  -0.107  62.636  0.00  0.00     0.128 C 
ATOM     22  O1  LG1 d5015      33.930  -0.791  62.956  0.00  0.00    -0.298 OA
ATOM     23  C8  LG1 d5015      35.570   0.740  63.648  0.00  0.00     0.091 C 
ENDBRANCH   4  21
TORSDOF 1
ENDMDL
MODEL 2
REMARK VINA RESULT:    -5.211      4.392      5.843
REMARK INTER + INTRA:          -5.718
REMARK INTER:                  -5.569
REMARK INTRA:                  -0.149
REMARK UNBOUND:                -0.202
REMARK  1 active torsions:
REMARK  status: ('A' for Active; 'I' for Inactive)
REMARK    1  A    between atoms: C7_7  and  C4_4 
ROOT
ATOM      1  C1  LG1 d5015      39.229  -3.283  62.190  0.00  0.00    -0.004 C 
ATOM      2  C2  LG1 d5015      39.506  -3.610  63.662  0.00  0.00    -0.001 C 
ATOM      3  C3  LG1 d5015      40.732  -4.578  63.856  0.00  0.00    -0.030 C 
ATOM      4  C4  LG1 d5015      40.760  -4.609  65.420  0.00  0.00     0.063 C 
ATOM      5  C5  LG1 d5015      40.439  -3.137  65.861  0.00  0.00     0.013 C 
ATOM      6  C6  LG1 d5015      39.801  -2.425  64.614  0.00  0.00     0.006 C 
ATOM      7  C9  LG1 d5015      42.082  -3.989  63.315  0.00  0.00     0.016 C 
ATOM      8  C10 LG1 d5015      40.340  -5.901  63.162  0.00  0.00     0.011 C 
ATOM      9  C11 LG1 d5015      40.017  -5.674  61.659  0.00  0.00     0.007 C 
ATOM     10  C12 LG1 d5015      38.896  -4.622  61.453  0.00  0.00     0.002 C 
ATOM     11  C13 LG1 d5015      38.572  -4.416  59.927  0.00  0.00    -0.016 C 
ATOM     12  C14 LG1 d5015      37.437  -3.321  59.796  0.00  0.00    -0.068 C 
ATOM     13  C15 LG1 d5015      36.369  -3.459  59.031  0.00  0.00     0.053 C 
ATOM     14  C16 LG1 d5015      36.212  -4.597  58.138  0.00  0.00     0.149 C 
ATOM     15  C17 LG1 d5015      37.337  -5.618  57.995  0.00  0.00     0.084 C 
ATOM     16  C18 LG1 d5015      38.074  -5.768  59.350  0.00  0.00     0.022 C 
ATOM     17  O2  LG1 d5015      35.194  -4.708  57.433  0.00  0.00    -0.293 OA
ATOM     18  C19 LG1 d5015      37.579  -2.052  60.629  0.00  0.00     0.035 C 
ATOM     19  C20 LG1 d5015      37.996  -2.350  62.083  0.00  0.00     0.010 C 
ATOM     20  C21 LG1 d5015      39.809  -3.873  59.113  0.00  0.00     0.020 C 
ENDROOT
BRANCH   4  21
ATOM     21  C7  LG1 d5015      42.036  -5.209  66.033  0.00  0.00     0.128 C 
ATOM     22  O1  LG1 d5015      42.883  -4.484  66.511  0.00  0.00    -0.298 OA
ATOM     23  C8  LG1 d5015      42.220  -6.687  66.042  0.00  0.00     0.091 C 
ENDBRANCH   4  21
TORSDOF 1
ENDMDL
MODEL 3
REMARK VINA RESULT:    -5.018      2.865      6.898
REMARK INTER + INTRA:          -5.514
REMARK INTER:                  -5.370
REMARK INTRA:                  -0.144
REMARK UNBOUND:                -0.202
REMARK  1 active torsions:
REMARK  status: ('A' for Active; 'I' for Inactive)
REMARK    1  A    between atoms: C7_7  and  C4_4 
ROOT
ATOM      1  C1  LG1 d5015      39.176  -2.533  59.817  0.00  0.00    -0.004 C 
ATOM      2  C2  LG1 d5015      40.610  -3.043  59.993  0.00  0.00    -0.001 C 
ATOM      3  C3  LG1 d5015      40.706  -4.287  60.953  0.00  0.00    -0.030 C 
ATOM      4  C4  LG1 d5015      42.241  -4.565  60.822  0.00  0.00     0.063 C 
ATOM      5  C5  LG1 d5015      42.572  -4.314  59.309  0.00  0.00     0.013 C 
ATOM      6  C6  LG1 d5015      41.375  -3.482  58.721  0.00  0.00     0.006 C 
ATOM      7  C9  LG1 d5015      39.898  -5.532  60.441  0.00  0.00     0.016 C 
ATOM      8  C10 LG1 d5015      40.225  -3.794  62.335  0.00  0.00     0.011 C 
ATOM      9  C11 LG1 d5015      38.777  -3.235  62.259  0.00  0.00     0.007 C 
ATOM     10  C12 LG1 d5015      38.644  -2.091  61.220  0.00  0.00     0.002 C 
ATOM     11  C13 LG1 d5015      37.176  -1.527  61.168  0.00  0.00    -0.016 C 
ATOM     12  C14 LG1 d5015      37.115  -0.382  60.077  0.00  0.00    -0.068 C 
ATOM     13  C15 LG1 d5015      36.548   0.794  60.279  0.00  0.00     0.053 C 
ATOM     14  C16 LG1 d5015      35.816   1.088  61.501  0.00  0.00     0.149 C 
ATOM     15  C17 LG1 d5015      35.602  -0.003  62.546  0.00  0.00     0.084 C 
ATOM     16  C18 LG1 d5015      36.829  -0.947  62.565  0.00  0.00     0.022 C 
ATOM     17  O2  LG1 d5015      35.296   2.206  61.671  0.00  0.00    -0.293 OA
ATOM     18  C19 LG1 d5015      37.779  -0.651  58.731  0.00  0.00     0.035 C 
ATOM     19  C20 LG1 d5015      39.170  -1.296  58.883  0.00  0.00     0.010 C 
ATOM     20  C21 LG1 d5015      36.124  -2.616  60.728  0.00  0.00     0.020 C 
ENDROOT
BRANCH   4  21
ATOM     21  C7  LG1 d5015      42.701  -5.926  61.373  0.00  0.00     0.128 C 
ATOM     22  O1  LG1 d5015      43.079  -6.794  60.616  0.00  0.00    -0.298 OA
ATOM     23  C8  LG1 d5015      42.686  -6.164  62.843  0.00  0.00     0.091 C 
ENDBRANCH   4  21
TORSDOF 1
ENDMDL
MODEL 4
REMARK VINA RESULT:    -4.669      2.877      6.258
REMARK INTER + INTRA:          -5.144
REMARK INTER:                  -4.939
REMARK INTRA:                  -0.205
REMARK UNBOUND:                -0.202
REMARK  1 active torsions:
REMARK  status: ('A' for Active; 'I' for Inactive)
REMARK    1  A    between atoms: C7_7  and  C4_4 
ROOT
ATOM      1  C1  LG1 d5015      38.369  -1.019  59.790  0.00  0.00    -0.004 C 
ATOM      2  C2  LG1 d5015      38.402  -2.525  60.067  0.00  0.00    -0.001 C 
ATOM      3  C3  LG1 d5015      39.645  -3.242  59.421  0.00  0.00    -0.030 C 
ATOM      4  C4  LG1 d5015      39.394  -4.686  59.969  0.00  0.00     0.063 C 
ATOM      5  C5  LG1 d5015      38.884  -4.480  61.439  0.00  0.00     0.013 C 
ATOM      6  C6  LG1 d5015      38.427  -2.980  61.547  0.00  0.00     0.006 C 
ATOM      7  C9  LG1 d5015      41.021  -2.707  59.954  0.00  0.00     0.016 C 
ATOM      8  C10 LG1 d5015      39.489  -3.064  57.894  0.00  0.00     0.011 C 
ATOM      9  C11 LG1 d5015      39.426  -1.560  57.508  0.00  0.00     0.007 C 
ATOM     10  C12 LG1 d5015      38.281  -0.814  58.241  0.00  0.00     0.002 C 
ATOM     11  C13 LG1 d5015      38.222   0.702  57.826  0.00  0.00    -0.016 C 
ATOM     12  C14 LG1 d5015      37.047   1.398  58.626  0.00  0.00    -0.068 C 
ATOM     13  C15 LG1 d5015      36.148   2.189  58.068  0.00  0.00     0.053 C 
ATOM     14  C16 LG1 d5015      36.244   2.588  56.673  0.00  0.00     0.149 C 
ATOM     15  C17 LG1 d5015      37.453   2.172  55.840  0.00  0.00     0.084 C 
ATOM     16  C18 LG1 d5015      37.943   0.778  56.301  0.00  0.00     0.022 C 
ATOM     17  O2  LG1 d5015      35.381   3.329  56.168  0.00  0.00    -0.293 OA
ATOM     18  C19 LG1 d5015      36.936   1.105  60.119  0.00  0.00     0.035 C 
ATOM     19  C20 LG1 d5015      37.107  -0.393  60.435  0.00  0.00     0.010 C 
ATOM     20  C21 LG1 d5015      39.538   1.485  58.202  0.00  0.00     0.020 C 
ENDROOT
BRANCH   4  21
ATOM     21  C7  LG1 d5015      40.582  -5.651  59.821  0.00  0.00     0.128 C 
ATOM     22  O1  LG1 d5015      40.941  -6.012  58.721  0.00  0.00    -0.298 OA
ATOM     23  C8  LG1 d5015      41.294  -6.130  61.039  0.00  0.00     0.091 C 
ENDBRANCH   4  21
TORSDOF 1
ENDMDL
MODEL 5
REMARK VINA RESULT:    -4.663      4.858      6.415
REMARK INTER + INTRA:          -5.138
REMARK INTER:                  -4.936
REMARK INTRA:                  -0.202
REMARK UNBOUND:                -0.202
REMARK  1 active torsions:
REMARK  status: ('A' for Active; 'I' for Inactive)
REMARK    1  A    between atoms: C7_7  and  C4_4 
ROOT
ATOM      1  C1  LG1 d5015      41.596  -3.719  61.166  0.00  0.00    -0.004 C 
ATOM      2  C2  LG1 d5015      42.231  -3.630  62.558  0.00  0.00    -0.001 C 
ATOM      3  C3  LG1 d5015      41.657  -4.696  63.564  0.00  0.00    -0.030 C 
ATOM      4  C4  LG1 d5015      42.567  -4.369  64.795  0.00  0.00     0.063 C 
ATOM      5  C5  LG1 d5015      43.984  -4.080  64.187  0.00  0.00     0.013 C 
ATOM      6  C6  LG1 d5015      43.766  -3.800  62.656  0.00  0.00     0.006 C 
ATOM      7  C9  LG1 d5015      41.900  -6.178  63.106  0.00  0.00     0.016 C 
ATOM      8  C10 LG1 d5015      40.158  -4.362  63.725  0.00  0.00     0.011 C 
ATOM      9  C11 LG1 d5015      39.422  -4.406  62.357  0.00  0.00     0.007 C 
ATOM     10  C12 LG1 d5015      40.062  -3.451  61.316  0.00  0.00     0.002 C 
ATOM     11  C13 LG1 d5015      39.295  -3.497  59.943  0.00  0.00    -0.016 C 
ATOM     12  C14 LG1 d5015      40.015  -2.515  58.931  0.00  0.00    -0.068 C 
ATOM     13  C15 LG1 d5015      39.374  -1.639  58.179  0.00  0.00     0.053 C 
ATOM     14  C16 LG1 d5015      37.921  -1.593  58.131  0.00  0.00     0.149 C 
ATOM     15  C17 LG1 d5015      37.097  -2.632  58.885  0.00  0.00     0.084 C 
ATOM     16  C18 LG1 d5015      37.835  -3.030  60.187  0.00  0.00     0.022 C 
ATOM     17  O2  LG1 d5015      37.340  -0.754  57.419  0.00  0.00    -0.293 OA
ATOM     18  C19 LG1 d5015      41.536  -2.571  58.852  0.00  0.00     0.035 C 
ATOM     19  C20 LG1 d5015      42.193  -2.624  60.246  0.00  0.00     0.010 C 
ATOM     20  C21 LG1 d5015      39.331  -4.925  59.276  0.00  0.00     0.020 C 
ENDROOT
BRANCH   4  21
ATOM     21  C7  LG1 d5015      42.540  -5.421  65.916  0.00  0.00     0.128 C 
ATOM     22  O1  LG1 d5015      41.520  -5.624  66.539  0.00  0.00    -0.298 OA
ATOM     23  C8  LG1 d5015      43.775  -6.194  66.226  0.00  0.00     0.091 C 
ENDBRANCH   4  21
TORSDOF 1
ENDMDL
