REMARK INTER + INTRA:          -5.134
REMARK INTER:                  -4.932
REMARK INTRA:                  -0.202
REMARK UNBOUND:                -0.202
REMARK  1 active torsions:
REMARK  status: ('A' for Active; 'I' for Inactive)
REMARK    1  A    between atoms: C7_7  and  C4_4 
ROOT
ATOM      1  C1  LG1 d5015      41.601  -3.694  61.181  0.00  0.00    -0.004 C 
ATOM      2  C2  LG1 d5015      42.215  -3.604  62.582  0.00  0.00    -0.001 C 
ATOM      3  C3  LG1 d5015      41.633  -4.675  63.578  0.00  0.00    -0.030 C 
ATOM      4  C4  LG1 d5015      42.523  -4.345  64.822  0.00  0.00     0.063 C 
ATOM      5  C5  LG1 d5015      43.947  -4.048  64.235  0.00  0.00     0.013 C 
ATOM      6  C6  LG1 d5015      43.750  -3.767  62.702  0.00  0.00     0.006 C 
ATOM      7  C9  LG1 d5015      41.890  -6.154  63.122  0.00  0.00     0.016 C 
ATOM      8  C10 LG1 d5015      40.129  -4.348  63.719  0.00  0.00     0.011 C 
ATOM      9  C11 LG1 d5015      39.413  -4.394  62.341  0.00  0.00     0.007 C 
ATOM     10  C12 LG1 d5015      40.063  -3.434  61.310  0.00  0.00     0.002 C 
ATOM     11  C13 LG1 d5015      39.316  -3.482  59.926  0.00  0.00    -0.016 C 
ATOM     12  C14 LG1 d5015      40.045  -2.495  58.926  0.00  0.00    -0.068 C 
ATOM     13  C15 LG1 d5015      39.410  -1.621  58.166  0.00  0.00     0.053 C 
ATOM     14  C16 LG1 d5015      37.958  -1.582  58.097  0.00  0.00     0.149 C 
ATOM     15  C17 LG1 d5015      37.129  -2.627  58.838  0.00  0.00     0.084 C 
ATOM     16  C18 LG1 d5015      37.850  -3.023  60.150  0.00  0.00     0.022 C 
ATOM     17  O2  LG1 d5015      37.383  -0.745  57.379  0.00  0.00    -0.293 OA
ATOM     18  C19 LG1 d5015      41.568  -2.543  58.869  0.00  0.00     0.035 C 
ATOM     19  C20 LG1 d5015      42.205  -2.594  60.271  0.00  0.00     0.010 C 
ATOM     20  C21 LG1 d5015      39.369  -4.909  59.258  0.00  0.00     0.020 C 
ENDROOT
BRANCH   4  21
ATOM     21  C7  LG1 d5015      42.486  -5.399  65.942  0.00  0.00     0.128 C 
ATOM     22  O1  LG1 d5015      41.459  -5.605  66.551  0.00  0.00    -0.298 OA
ATOM     23  C8  LG1 d5015      43.720  -6.168  66.266  0.00  0.00     0.091 C 
ENDBRANCH   4  21
TORSDOF 1
ENDMDL
