REMARK INTER + INTRA:          -5.608
REMARK INTER:                  -5.406
REMARK INTRA:                  -0.202
REMARK UNBOUND:                -0.202
REMARK  1 active torsions:
REMARK  status: ('A' for Active; 'I' for Inactive)
REMARK    1  A    between atoms: C7_7  and  C4_4 
ROOT
ATOM      1  C1  LG1 d5015      39.136  -2.324  59.570  0.00  0.00    -0.004 C 
ATOM      2  C2  LG1 d5015      40.565  -2.856  59.722  0.00  0.00    -0.001 C 
ATOM      3  C3  LG1 d5015      40.639  -4.184  60.564  0.00  0.00    -0.030 C 
ATOM      4  C4  LG1 d5015      42.175  -4.458  60.434  0.00  0.00     0.063 C 
ATOM      5  C5  LG1 d5015      42.533  -4.070  58.956  0.00  0.00     0.013 C 
ATOM      6  C6  LG1 d5015      41.350  -3.181  58.427  0.00  0.00     0.006 C 
ATOM      7  C9  LG1 d5015      39.835  -5.371  59.927  0.00  0.00     0.016 C 
ATOM      8  C10 LG1 d5015      40.137  -3.817  61.978  0.00  0.00     0.011 C 
ATOM      9  C11 LG1 d5015      38.693  -3.245  61.930  0.00  0.00     0.007 C 
ATOM     10  C12 LG1 d5015      38.583  -2.010  60.999  0.00  0.00     0.002 C 
ATOM     11  C13 LG1 d5015      37.118  -1.434  60.975  0.00  0.00    -0.016 C 
ATOM     12  C14 LG1 d5015      37.080  -0.194  59.993  0.00  0.00    -0.068 C 
ATOM     13  C15 LG1 d5015      36.515   0.962  60.293  0.00  0.00     0.053 C 
ATOM     14  C16 LG1 d5015      35.763   1.147  61.525  0.00  0.00     0.149 C 
ATOM     15  C17 LG1 d5015      35.527  -0.035  62.461  0.00  0.00     0.084 C 
ATOM     16  C18 LG1 d5015      36.750  -0.984  62.414  0.00  0.00     0.022 C 
ATOM     17  O2  LG1 d5015      35.246   2.247  61.788  0.00  0.00    -0.293 OA
ATOM     18  C19 LG1 d5015      37.766  -0.342  58.639  0.00  0.00     0.035 C 
ATOM     19  C20 LG1 d5015      39.151  -1.006  58.754  0.00  0.00     0.010 C 
ATOM     20  C21 LG1 d5015      36.069  -2.472  60.419  0.00  0.00     0.020 C 
ENDROOT
BRANCH   4  21
ATOM     21  C7  LG1 d5015      42.620  -5.865  60.865  0.00  0.00     0.128 C 
ATOM     22  O1  LG1 d5015      42.495  -6.217  62.018  0.00  0.00    -0.298 OA
ATOM     23  C8  LG1 d5015      43.197  -6.794  59.853  0.00  0.00     0.091 C 
ENDBRANCH   4  21
TORSDOF 1
ENDMDL
