REMARK INTER + INTRA:          -5.603
REMARK INTER:                  -5.401
REMARK INTRA:                  -0.202
REMARK UNBOUND:                -0.061
REMARK  1 active torsions:
REMARK  status: ('A' for Active; 'I' for Inactive)
REMARK    1  A    between atoms: C7_7  and  C4_4 
ROOT
ATOM      1  C1  LG1 d5015      39.152  -2.347  59.572  0.00  0.00    -0.004 C 
ATOM      2  C2  LG1 d5015      40.584  -2.869  59.730  0.00  0.00    -0.001 C 
ATOM      3  C3  LG1 d5015      40.666  -4.187  60.586  0.00  0.00    -0.030 C 
ATOM      4  C4  LG1 d5015      42.203  -4.453  60.459  0.00  0.00     0.063 C 
ATOM      5  C5  LG1 d5015      42.559  -4.078  58.978  0.00  0.00     0.013 C 
ATOM      6  C6  LG1 d5015      41.371  -3.202  58.439  0.00  0.00     0.006 C 
ATOM      7  C9  LG1 d5015      39.870  -5.386  59.960  0.00  0.00     0.016 C 
ATOM      8  C10 LG1 d5015      40.161  -3.809  61.996  0.00  0.00     0.011 C 
ATOM      9  C11 LG1 d5015      38.713  -3.246  61.942  0.00  0.00     0.007 C 
ATOM     10  C12 LG1 d5015      38.595  -2.022  60.997  0.00  0.00     0.002 C 
ATOM     11  C13 LG1 d5015      37.127  -1.456  60.967  0.00  0.00    -0.016 C 
ATOM     12  C14 LG1 d5015      37.082  -0.226  59.972  0.00  0.00    -0.068 C 
ATOM     13  C15 LG1 d5015      36.509   0.929  60.260  0.00  0.00     0.053 C 
ATOM     14  C16 LG1 d5015      35.756   1.122  61.489  0.00  0.00     0.149 C 
ATOM     15  C17 LG1 d5015      35.526  -0.051  62.438  0.00  0.00     0.084 C 
ATOM     16  C18 LG1 d5015      36.756  -0.993  62.401  0.00  0.00     0.022 C 
ATOM     17  O2  LG1 d5015      35.231   2.221  61.741  0.00  0.00    -0.293 OA
ATOM     18  C19 LG1 d5015      37.769  -0.383  58.620  0.00  0.00     0.035 C 
ATOM     19  C20 LG1 d5015      39.159  -1.037  58.742  0.00  0.00     0.010 C 
ATOM     20  C21 LG1 d5015      36.085  -2.506  60.421  0.00  0.00     0.020 C 
ENDROOT
BRANCH   4  21
ATOM     21  C7  LG1 d5015      42.657  -5.853  60.905  0.00  0.00     0.128 C 
ATOM     22  O1  LG1 d5015      42.546  -6.190  62.064  0.00  0.00    -0.298 OA
ATOM     23  C8  LG1 d5015      43.225  -6.794  59.900  0.00  0.00     0.091 C 
ENDBRANCH   4  21
TORSDOF 1
ENDMDL
