REMARK INTER + INTRA:          -5.756
REMARK INTER:                  -5.630
REMARK INTRA:                  -0.126
REMARK UNBOUND:                -0.061
REMARK  1 active torsions:
REMARK  status: ('A' for Active; 'I' for Inactive)
REMARK    1  A    between atoms: C7_7  and  C4_4 
ROOT
ATOM      1  C1  LG1 d5015      38.015  -1.649  58.838  0.00  0.00    -0.004 C 
ATOM      2  C2  LG1 d5015      36.937  -0.750  59.453  0.00  0.00    -0.001 C 
ATOM      3  C3  LG1 d5015      36.388  -1.298  60.822  0.00  0.00    -0.030 C 
ATOM      4  C4  LG1 d5015      35.415  -0.123  61.171  0.00  0.00     0.063 C 
ATOM      5  C5  LG1 d5015      36.174   1.177  60.731  0.00  0.00     0.013 C 
ATOM      6  C6  LG1 d5015      37.318   0.720  59.755  0.00  0.00     0.006 C 
ATOM      7  C9  LG1 d5015      37.491  -1.418  61.933  0.00  0.00     0.016 C 
ATOM      8  C10 LG1 d5015      35.720  -2.653  60.499  0.00  0.00     0.011 C 
ATOM      9  C11 LG1 d5015      36.733  -3.637  59.849  0.00  0.00     0.007 C 
ATOM     10  C12 LG1 d5015      37.377  -3.051  58.566  0.00  0.00     0.002 C 
ATOM     11  C13 LG1 d5015      38.387  -4.066  57.912  0.00  0.00    -0.016 C 
ATOM     12  C14 LG1 d5015      39.015  -3.394  56.625  0.00  0.00    -0.068 C 
ATOM     13  C15 LG1 d5015      39.119  -4.002  55.457  0.00  0.00     0.053 C 
ATOM     14  C16 LG1 d5015      38.769  -5.405  55.293  0.00  0.00     0.149 C 
ATOM     15  C17 LG1 d5015      38.363  -6.238  56.504  0.00  0.00     0.084 C 
ATOM     16  C18 LG1 d5015      37.601  -5.344  57.514  0.00  0.00     0.022 C 
ATOM     17  O2  LG1 d5015      38.869  -5.953  54.181  0.00  0.00    -0.293 OA
ATOM     18  C19 LG1 d5015      39.495  -1.952  56.742  0.00  0.00     0.035 C 
ATOM     19  C20 LG1 d5015      38.483  -1.057  57.484  0.00  0.00     0.010 C 
ATOM     20  C21 LG1 d5015      39.595  -4.417  58.864  0.00  0.00     0.020 C 
ENDROOT
BRANCH   4  21
ATOM     21  C7  LG1 d5015      34.899  -0.118  62.620  0.00  0.00     0.128 C 
ATOM     22  O1  LG1 d5015      33.981  -0.840  62.943  0.00  0.00    -0.298 OA
ATOM     23  C8  LG1 d5015      35.542   0.774  63.624  0.00  0.00     0.091 C 
ENDBRANCH   4  21
TORSDOF 1
ENDMDL
