MODEL 1
REMARK VINA RESULT:    -5.247      0.000      0.000
REMARK INTER + INTRA:          -5.756
REMARK INTER:                  -5.645
REMARK INTRA:                  -0.111
REMARK UNBOUND:                -0.202
REMARK  1 active torsions:
REMARK  status: ('A' for Active; 'I' for Inactive)
REMARK    1  A    between atoms: C7_7  and  C4_4 
ROOT
ATOM      1  C1  LG1 d5015      37.983  -1.644  58.837  0.00  0.00    -0.004 C 
ATOM      2  C2  LG1 d5015      36.896  -0.755  59.452  0.00  0.00    -0.001 C 
ATOM      3  C3  LG1 d5015      36.363  -1.300  60.829  0.00  0.00    -0.030 C 
ATOM      4  C4  LG1 d5015      35.376  -0.135  61.174  0.00  0.00     0.063 C 
ATOM      5  C5  LG1 d5015      36.115   1.172  60.719  0.00  0.00     0.013 C 
ATOM      6  C6  LG1 d5015      37.259   0.722  59.740  0.00  0.00     0.006 C 
ATOM      7  C9  LG1 d5015      37.474  -1.395  61.933  0.00  0.00     0.016 C 
ATOM      8  C10 LG1 d5015      35.712  -2.666  60.520  0.00  0.00     0.011 C 
ATOM      9  C11 LG1 d5015      36.733  -3.641  59.871  0.00  0.00     0.007 C 
ATOM     10  C12 LG1 d5015      37.362  -3.057  58.580  0.00  0.00     0.002 C 
ATOM     11  C13 LG1 d5015      38.382  -4.063  57.928  0.00  0.00    -0.016 C 
ATOM     12  C14 LG1 d5015      38.993  -3.393  56.632  0.00  0.00    -0.068 C 
ATOM     13  C15 LG1 d5015      39.098  -4.009  55.468  0.00  0.00     0.053 C 
ATOM     14  C16 LG1 d5015      38.767  -5.417  55.317  0.00  0.00     0.149 C 
ATOM     15  C17 LG1 d5015      38.378  -6.246  56.537  0.00  0.00     0.084 C 
ATOM     16  C18 LG1 d5015      37.611  -5.355  57.544  0.00  0.00     0.022 C 
ATOM     17  O2  LG1 d5015      38.867  -5.973  54.209  0.00  0.00    -0.293 OA
ATOM     18  C19 LG1 d5015      39.454  -1.943  56.735  0.00  0.00     0.035 C 
ATOM     19  C20 LG1 d5015      38.435  -1.056  57.476  0.00  0.00     0.010 C 
ATOM     20  C21 LG1 d5015      39.600  -4.390  58.875  0.00  0.00     0.020 C 
ENDROOT
BRANCH   4  21
ATOM     21  C7  LG1 d5015      34.869  -0.126  62.626  0.00  0.00     0.128 C 
ATOM     22  O1  LG1 d5015      33.942  -0.836  62.952  0.00  0.00    -0.298 OA
ATOM     23  C8  LG1 d5015      35.531   0.756  63.629  0.00  0.00     0.091 C 
ENDBRANCH   4  21
TORSDOF 1
ENDMDL
MODEL 2
REMARK VINA RESULT:    -5.221      4.396      5.851
REMARK INTER + INTRA:          -5.728
REMARK INTER:                  -5.581
REMARK INTRA:                  -0.147
REMARK UNBOUND:                -0.202
REMARK  1 active torsions:
REMARK  status: ('A' for Active; 'I' for Inactive)
REMARK    1  A    between atoms: C7_7  and  C4_4 
ROOT
ATOM      1  C1  LG1 d5015      39.223  -3.270  62.209  0.00  0.00    -0.004 C 
ATOM      2  C2  LG1 d5015      39.506  -3.584  63.682  0.00  0.00    -0.001 C 
ATOM      3  C3  LG1 d5015      40.725  -4.560  63.879  0.00  0.00    -0.030 C 
ATOM      4  C4  LG1 d5015      40.762  -4.576  65.443  0.00  0.00     0.063 C 
ATOM      5  C5  LG1 d5015      40.454  -3.098  65.872  0.00  0.00     0.013 C 
ATOM      6  C6  LG1 d5015      39.815  -2.393  64.621  0.00  0.00     0.006 C 
ATOM      7  C9  LG1 d5015      42.077  -3.986  63.325  0.00  0.00     0.016 C 
ATOM      8  C10 LG1 d5015      40.319  -5.887  63.200  0.00  0.00     0.011 C 
ATOM      9  C11 LG1 d5015      39.990  -5.671  61.697  0.00  0.00     0.007 C 
ATOM     10  C12 LG1 d5015      38.876  -4.613  61.486  0.00  0.00     0.002 C 
ATOM     11  C13 LG1 d5015      38.545  -4.419  59.960  0.00  0.00    -0.016 C 
ATOM     12  C14 LG1 d5015      37.418  -3.317  59.825  0.00  0.00    -0.068 C 
ATOM     13  C15 LG1 d5015      36.345  -3.454  59.068  0.00  0.00     0.053 C 
ATOM     14  C16 LG1 d5015      36.174  -4.600  58.187  0.00  0.00     0.149 C 
ATOM     15  C17 LG1 d5015      37.290  -5.630  58.047  0.00  0.00     0.084 C 
ATOM     16  C18 LG1 d5015      38.033  -5.773  59.399  0.00  0.00     0.022 C 
ATOM     17  O2  LG1 d5015      35.151  -4.710  57.488  0.00  0.00    -0.293 OA
ATOM     18  C19 LG1 d5015      37.574  -2.041  60.646  0.00  0.00     0.035 C 
ATOM     19  C20 LG1 d5015      37.996  -2.328  62.099  0.00  0.00     0.010 C 
ATOM     20  C21 LG1 d5015      39.781  -3.893  59.135  0.00  0.00     0.020 C 
ENDROOT
BRANCH   4  21
ATOM     21  C7  LG1 d5015      42.037  -5.180  66.054  0.00  0.00     0.128 C 
ATOM     22  O1  LG1 d5015      42.890  -4.456  66.524  0.00  0.00    -0.298 OA
ATOM     23  C8  LG1 d5015      42.213  -6.659  66.072  0.00  0.00     0.091 C 
ENDBRANCH   4  21
TORSDOF 1
ENDMDL
MODEL 3
REMARK VINA RESULT:    -5.107      2.862      6.895
REMARK INTER + INTRA:          -5.608
REMARK INTER:                  -5.406
REMARK INTRA:                  -0.202
REMARK UNBOUND:                -0.202
REMARK  1 active torsions:
REMARK  status: ('A' for Active; 'I' for Inactive)
REMARK    1  A    between atoms: C7_7  and  C4_4 
ROOT
ATOM      1  C1  LG1 d5015      39.136  -2.324  59.570  0.00  0.00    -0.004 C 
ATOM      2  C2  LG1 d5015      40.565  -2.856  59.722  0.00  0.00    -0.001 C 
ATOM      3  C3  LG1 d5015      40.639  -4.184  60.564  0.00  0.00    -0.030 C 
ATOM      4  C4  LG1 d5015      42.175  -4.458  60.434  0.00  0.00     0.063 C 
ATOM      5  C5  LG1 d5015      42.533  -4.070  58.956  0.00  0.00     0.013 C 
ATOM      6  C6  LG1 d5015      41.350  -3.181  58.427  0.00  0.00     0.006 C 
ATOM      7  C9  LG1 d5015      39.835  -5.371  59.927  0.00  0.00     0.016 C 
ATOM      8  C10 LG1 d5015      40.137  -3.817  61.978  0.00  0.00     0.011 C 
ATOM      9  C11 LG1 d5015      38.693  -3.245  61.930  0.00  0.00     0.007 C 
ATOM     10  C12 LG1 d5015      38.583  -2.010  60.999  0.00  0.00     0.002 C 
ATOM     11  C13 LG1 d5015      37.118  -1.434  60.975  0.00  0.00    -0.016 C 
ATOM     12  C14 LG1 d5015      37.080  -0.194  59.993  0.00  0.00    -0.068 C 
ATOM     13  C15 LG1 d5015      36.515   0.962  60.293  0.00  0.00     0.053 C 
ATOM     14  C16 LG1 d5015      35.763   1.147  61.525  0.00  0.00     0.149 C 
ATOM     15  C17 LG1 d5015      35.527  -0.035  62.461  0.00  0.00     0.084 C 
ATOM     16  C18 LG1 d5015      36.750  -0.984  62.414  0.00  0.00     0.022 C 
ATOM     17  O2  LG1 d5015      35.246   2.247  61.788  0.00  0.00    -0.293 OA
ATOM     18  C19 LG1 d5015      37.766  -0.342  58.639  0.00  0.00     0.035 C 
ATOM     19  C20 LG1 d5015      39.151  -1.006  58.754  0.00  0.00     0.010 C 
ATOM     20  C21 LG1 d5015      36.069  -2.472  60.419  0.00  0.00     0.020 C 
ENDROOT
BRANCH   4  21
ATOM     21  C7  LG1 d5015      42.620  -5.865  60.865  0.00  0.00     0.128 C 
ATOM     22  O1  LG1 d5015      42.495  -6.217  62.018  0.00  0.00    -0.298 OA
ATOM     23  C8  LG1 d5015      43.197  -6.794  59.853  0.00  0.00     0.091 C 
ENDBRANCH   4  21
TORSDOF 1
ENDMDL
MODEL 4
REMARK VINA RESULT:    -4.660      4.836      6.394
REMARK INTER + INTRA:          -5.134
REMARK INTER:                  -4.932
REMARK INTRA:                  -0.202
REMARK UNBOUND:                -0.202
REMARK  1 active torsions:
REMARK  status: ('A' for Active; 'I' for Inactive)
REMARK    1  A    between atoms: C7_7  and  C4_4 
ROOT
ATOM      1  C1  LG1 d5015      41.601  -3.694  61.181  0.00  0.00    -0.004 C 
ATOM      2  C2  LG1 d5015      42.215  -3.604  62.582  0.00  0.00    -0.001 C 
ATOM      3  C3  LG1 d5015      41.633  -4.675  63.578  0.00  0.00    -0.030 C 
ATOM      4  C4  LG1 d5015      42.523  -4.345  64.822  0.00  0.00     0.063 C 
ATOM      5  C5  LG1 d5015      43.947  -4.048  64.235  0.00  0.00     0.013 C 
ATOM      6  C6  LG1 d5015      43.750  -3.767  62.702  0.00  0.00     0.006 C 
ATOM      7  C9  LG1 d5015      41.890  -6.154  63.122  0.00  0.00     0.016 C 
ATOM      8  C10 LG1 d5015      40.129  -4.348  63.719  0.00  0.00     0.011 C 
ATOM      9  C11 LG1 d5015      39.413  -4.394  62.341  0.00  0.00     0.007 C 
ATOM     10  C12 LG1 d5015      40.063  -3.434  61.310  0.00  0.00     0.002 C 
ATOM     11  C13 LG1 d5015      39.316  -3.482  59.926  0.00  0.00    -0.016 C 
ATOM     12  C14 LG1 d5015      40.045  -2.495  58.926  0.00  0.00    -0.068 C 
ATOM     13  C15 LG1 d5015      39.410  -1.621  58.166  0.00  0.00     0.053 C 
ATOM     14  C16 LG1 d5015      37.958  -1.582  58.097  0.00  0.00     0.149 C 
ATOM     15  C17 LG1 d5015      37.129  -2.627  58.838  0.00  0.00     0.084 C 
ATOM     16  C18 LG1 d5015      37.850  -3.023  60.150  0.00  0.00     0.022 C 
ATOM     17  O2  LG1 d5015      37.383  -0.745  57.379  0.00  0.00    -0.293 OA
ATOM     18  C19 LG1 d5015      41.568  -2.543  58.869  0.00  0.00     0.035 C 
ATOM     19  C20 LG1 d5015      42.205  -2.594  60.271  0.00  0.00     0.010 C 
ATOM     20  C21 LG1 d5015      39.369  -4.909  59.258  0.00  0.00     0.020 C 
ENDROOT
BRANCH   4  21
ATOM     21  C7  LG1 d5015      42.486  -5.399  65.942  0.00  0.00     0.128 C 
ATOM     22  O1  LG1 d5015      41.459  -5.605  66.551  0.00  0.00    -0.298 OA
ATOM     23  C8  LG1 d5015      43.720  -6.168  66.266  0.00  0.00     0.091 C 
ENDBRANCH   4  21
TORSDOF 1
ENDMDL
MODEL 5
REMARK VINA RESULT:    -4.655      2.871      6.247
REMARK INTER + INTRA:          -5.129
REMARK INTER:                  -4.934
REMARK INTRA:                  -0.196
REMARK UNBOUND:                -0.202
REMARK  1 active torsions:
REMARK  status: ('A' for Active; 'I' for Inactive)
REMARK    1  A    between atoms: C7_7  and  C4_4 
ROOT
ATOM      1  C1  LG1 d5015      38.370  -1.011  59.752  0.00  0.00    -0.004 C 
ATOM      2  C2  LG1 d5015      38.396  -2.515  60.045  0.00  0.00    -0.001 C 
ATOM      3  C3  LG1 d5015      39.630  -3.246  59.396  0.00  0.00    -0.030 C 
ATOM      4  C4  LG1 d5015      39.374  -4.683  59.962  0.00  0.00     0.063 C 
ATOM      5  C5  LG1 d5015      38.877  -4.458  61.433  0.00  0.00     0.013 C 
ATOM      6  C6  LG1 d5015      38.430  -2.954  61.529  0.00  0.00     0.006 C 
ATOM      7  C9  LG1 d5015      41.013  -2.713  59.914  0.00  0.00     0.016 C 
ATOM      8  C10 LG1 d5015      39.464  -3.083  57.869  0.00  0.00     0.011 C 
ATOM      9  C11 LG1 d5015      39.406  -1.583  57.468  0.00  0.00     0.007 C 
ATOM     10  C12 LG1 d5015      38.272  -0.823  58.202  0.00  0.00     0.002 C 
ATOM     11  C13 LG1 d5015      38.218   0.690  57.772  0.00  0.00    -0.016 C 
ATOM     12  C14 LG1 d5015      37.053   1.401  58.573  0.00  0.00    -0.068 C 
ATOM     13  C15 LG1 d5015      36.155   2.192  58.014  0.00  0.00     0.053 C 
ATOM     14  C16 LG1 d5015      36.243   2.576  56.613  0.00  0.00     0.149 C 
ATOM     15  C17 LG1 d5015      37.443   2.144  55.776  0.00  0.00     0.084 C 
ATOM     16  C18 LG1 d5015      37.928   0.751  56.248  0.00  0.00     0.022 C 
ATOM     17  O2  LG1 d5015      35.380   3.316  56.108  0.00  0.00    -0.293 OA
ATOM     18  C19 LG1 d5015      36.953   1.125  60.069  0.00  0.00     0.035 C 
ATOM     19  C20 LG1 d5015      37.117  -0.371  60.401  0.00  0.00     0.010 C 
ATOM     20  C21 LG1 d5015      39.542   1.469  58.129  0.00  0.00     0.020 C 
ENDROOT
BRANCH   4  21
ATOM     21  C7  LG1 d5015      40.556  -5.656  59.815  0.00  0.00     0.128 C 
ATOM     22  O1  LG1 d5015      40.862  -6.082  58.722  0.00  0.00    -0.298 OA
ATOM     23  C8  LG1 d5015      41.325  -6.064  61.024  0.00  0.00     0.091 C 
ENDBRANCH   4  21
TORSDOF 1
ENDMDL
