REMARK INTER + INTRA:          -5.499
REMARK INTER:                  -5.299
REMARK INTRA:                  -0.200
REMARK UNBOUND:                -0.181
REMARK  1 active torsions:
REMARK  status: ('A' for Active; 'I' for Inactive)
REMARK    1  A    between atoms: C7_7  and  C4_4 
ROOT
ATOM      1  C1  LG1 d5015      38.690  -2.685  60.192  0.00  0.00    -0.004 C 
ATOM      2  C2  LG1 d5015      38.269  -1.735  61.319  0.00  0.00    -0.001 C 
ATOM      3  C3  LG1 d5015      36.887  -1.033  61.045  0.00  0.00    -0.030 C 
ATOM      4  C4  LG1 d5015      36.754  -0.245  62.391  0.00  0.00     0.063 C 
ATOM      5  C5  LG1 d5015      37.291  -1.228  63.491  0.00  0.00     0.013 C 
ATOM      6  C6  LG1 d5015      38.118  -2.333  62.739  0.00  0.00     0.006 C 
ATOM      7  C9  LG1 d5015      35.693  -2.041  60.903  0.00  0.00     0.016 C 
ATOM      8  C10 LG1 d5015      37.093  -0.172  59.778  0.00  0.00     0.011 C 
ATOM      9  C11 LG1 d5015      37.545  -1.045  58.574  0.00  0.00     0.007 C 
ATOM     10  C12 LG1 d5015      38.838  -1.844  58.881  0.00  0.00     0.002 C 
ATOM     11  C13 LG1 d5015      39.289  -2.709  57.647  0.00  0.00    -0.016 C 
ATOM     12  C14 LG1 d5015      40.599  -3.505  58.040  0.00  0.00    -0.068 C 
ATOM     13  C15 LG1 d5015      41.674  -3.571  57.277  0.00  0.00     0.053 C 
ATOM     14  C16 LG1 d5015      41.694  -3.008  55.936  0.00  0.00     0.149 C 
ATOM     15  C17 LG1 d5015      40.424  -2.408  55.340  0.00  0.00     0.084 C 
ATOM     16  C18 LG1 d5015      39.588  -1.748  56.464  0.00  0.00     0.022 C 
ATOM     17  O2  LG1 d5015      42.721  -3.077  55.238  0.00  0.00    -0.293 OA
ATOM     18  C19 LG1 d5015      40.620  -4.206  59.395  0.00  0.00     0.035 C 
ATOM     19  C20 LG1 d5015      40.067  -3.314  60.524  0.00  0.00     0.010 C 
ATOM     20  C21 LG1 d5015      38.216  -3.791  57.242  0.00  0.00     0.020 C 
ENDROOT
BRANCH   4  21
ATOM     21  C7  LG1 d5015      35.358   0.339  62.664  0.00  0.00     0.128 C 
ATOM     22  O1  LG1 d5015      34.900   1.189  61.932  0.00  0.00    -0.298 OA
ATOM     23  C8  LG1 d5015      34.571  -0.154  63.829  0.00  0.00     0.091 C 
ENDBRANCH   4  21
TORSDOF 1
ENDMDL
