REMARK INTER + INTRA:          -5.733
REMARK INTER:                  -5.583
REMARK INTRA:                  -0.149
REMARK UNBOUND:                -0.181
REMARK  1 active torsions:
REMARK  status: ('A' for Active; 'I' for Inactive)
REMARK    1  A    between atoms: C7_7  and  C4_4 
ROOT
ATOM      1  C1  LG1 d5015      39.218  -3.309  62.223  0.00  0.00    -0.004 C 
ATOM      2  C2  LG1 d5015      39.509  -3.639  63.691  0.00  0.00    -0.001 C 
ATOM      3  C3  LG1 d5015      40.739  -4.605  63.871  0.00  0.00    -0.030 C 
ATOM      4  C4  LG1 d5015      40.781  -4.641  65.435  0.00  0.00     0.063 C 
ATOM      5  C5  LG1 d5015      40.460  -3.172  65.884  0.00  0.00     0.013 C 
ATOM      6  C6  LG1 d5015      39.809  -2.457  64.645  0.00  0.00     0.006 C 
ATOM      7  C9  LG1 d5015      42.083  -4.010  63.320  0.00  0.00     0.016 C 
ATOM      8  C10 LG1 d5015      40.345  -5.927  63.176  0.00  0.00     0.011 C 
ATOM      9  C11 LG1 d5015      40.009  -5.695  61.677  0.00  0.00     0.007 C 
ATOM     10  C12 LG1 d5015      38.883  -4.646  61.484  0.00  0.00     0.002 C 
ATOM     11  C13 LG1 d5015      38.545  -4.436  59.962  0.00  0.00    -0.016 C 
ATOM     12  C14 LG1 d5015      37.406  -3.343  59.844  0.00  0.00    -0.068 C 
ATOM     13  C15 LG1 d5015      36.331  -3.482  59.089  0.00  0.00     0.053 C 
ATOM     14  C16 LG1 d5015      36.170  -4.617  58.194  0.00  0.00     0.149 C 
ATOM     15  C17 LG1 d5015      37.296  -5.634  58.037  0.00  0.00     0.084 C 
ATOM     16  C18 LG1 d5015      38.045  -5.787  59.384  0.00  0.00     0.022 C 
ATOM     17  O2  LG1 d5015      35.145  -4.729  57.497  0.00  0.00    -0.293 OA
ATOM     18  C19 LG1 d5015      37.551  -2.077  60.681  0.00  0.00     0.035 C 
ATOM     19  C20 LG1 d5015      37.982  -2.378  62.130  0.00  0.00     0.010 C 
ATOM     20  C21 LG1 d5015      39.773  -3.886  59.139  0.00  0.00     0.020 C 
ENDROOT
BRANCH   4  21
ATOM     21  C7  LG1 d5015      42.065  -5.239  66.034  0.00  0.00     0.128 C 
ATOM     22  O1  LG1 d5015      42.906  -4.514  66.520  0.00  0.00    -0.298 OA
ATOM     23  C8  LG1 d5015      42.262  -6.716  66.020  0.00  0.00     0.091 C 
ENDBRANCH   4  21
TORSDOF 1
ENDMDL
