MODEL 1
REMARK VINA RESULT:    -5.354      0.000      0.000
REMARK INTER + INTRA:          -5.758
REMARK INTER:                  -5.640
REMARK INTRA:                  -0.118
REMARK UNBOUND:                -0.091
REMARK  1 active torsions:
REMARK  status: ('A' for Active; 'I' for Inactive)
REMARK    1  A    between atoms: C7_7  and  C4_4 
ROOT
ATOM      1  C1  LG1 d5015      37.983  -1.641  58.845  0.00  0.00    -0.004 C 
ATOM      2  C2  LG1 d5015      36.903  -0.744  59.460  0.00  0.00    -0.001 C 
ATOM      3  C3  LG1 d5015      36.368  -1.283  60.839  0.00  0.00    -0.030 C 
ATOM      4  C4  LG1 d5015      35.389  -0.112  61.184  0.00  0.00     0.063 C 
ATOM      5  C5  LG1 d5015      36.137   1.190  60.727  0.00  0.00     0.013 C 
ATOM      6  C6  LG1 d5015      37.276   0.731  59.746  0.00  0.00     0.006 C 
ATOM      7  C9  LG1 d5015      37.480  -1.385  61.941  0.00  0.00     0.016 C 
ATOM      8  C10 LG1 d5015      35.707  -2.646  60.532  0.00  0.00     0.011 C 
ATOM      9  C11 LG1 d5015      36.722  -3.628  59.883  0.00  0.00     0.007 C 
ATOM     10  C12 LG1 d5015      37.353  -3.050  58.590  0.00  0.00     0.002 C 
ATOM     11  C13 LG1 d5015      38.364  -4.064  57.938  0.00  0.00    -0.016 C 
ATOM     12  C14 LG1 d5015      38.978  -3.399  56.640  0.00  0.00    -0.068 C 
ATOM     13  C15 LG1 d5015      39.077  -4.017  55.477  0.00  0.00     0.053 C 
ATOM     14  C16 LG1 d5015      38.737  -5.423  55.328  0.00  0.00     0.149 C 
ATOM     15  C17 LG1 d5015      38.345  -6.248  56.550  0.00  0.00     0.084 C 
ATOM     16  C18 LG1 d5015      37.584  -5.350  57.557  0.00  0.00     0.022 C 
ATOM     17  O2  LG1 d5015      38.832  -5.981  54.220  0.00  0.00    -0.293 OA
ATOM     18  C19 LG1 d5015      39.449  -1.952  56.741  0.00  0.00     0.035 C 
ATOM     19  C20 LG1 d5015      38.437  -1.058  57.483  0.00  0.00     0.010 C 
ATOM     20  C21 LG1 d5015      39.581  -4.397  58.884  0.00  0.00     0.020 C 
ENDROOT
BRANCH   4  21
ATOM     21  C7  LG1 d5015      34.885  -0.098  62.637  0.00  0.00     0.128 C 
ATOM     22  O1  LG1 d5015      33.959  -0.808  62.968  0.00  0.00    -0.298 OA
ATOM     23  C8  LG1 d5015      35.546   0.788  63.635  0.00  0.00     0.091 C 
ENDBRANCH   4  21
TORSDOF 1
ENDMDL
MODEL 2
REMARK VINA RESULT:    -5.333      4.396      5.856
REMARK INTER + INTRA:          -5.735
REMARK INTER:                  -5.589
REMARK INTRA:                  -0.146
REMARK UNBOUND:                -0.091
REMARK  1 active torsions:
REMARK  status: ('A' for Active; 'I' for Inactive)
REMARK    1  A    between atoms: C7_7  and  C4_4 
ROOT
ATOM      1  C1  LG1 d5015      39.205  -3.278  62.229  0.00  0.00    -0.004 C 
ATOM      2  C2  LG1 d5015      39.491  -3.597  63.700  0.00  0.00    -0.001 C 
ATOM      3  C3  LG1 d5015      40.719  -4.563  63.892  0.00  0.00    -0.030 C 
ATOM      4  C4  LG1 d5015      40.755  -4.586  65.457  0.00  0.00     0.063 C 
ATOM      5  C5  LG1 d5015      40.435  -3.113  65.892  0.00  0.00     0.013 C 
ATOM      6  C6  LG1 d5015      39.789  -2.408  64.645  0.00  0.00     0.006 C 
ATOM      7  C9  LG1 d5015      42.066  -3.975  63.341  0.00  0.00     0.016 C 
ATOM      8  C10 LG1 d5015      40.325  -5.890  63.207  0.00  0.00     0.011 C 
ATOM      9  C11 LG1 d5015      39.994  -5.670  61.705  0.00  0.00     0.007 C 
ATOM     10  C12 LG1 d5015      38.871  -4.621  61.499  0.00  0.00     0.002 C 
ATOM     11  C13 LG1 d5015      38.539  -4.423  59.974  0.00  0.00    -0.016 C 
ATOM     12  C14 LG1 d5015      37.401  -3.330  59.844  0.00  0.00    -0.068 C 
ATOM     13  C15 LG1 d5015      36.330  -3.473  59.085  0.00  0.00     0.053 C 
ATOM     14  C16 LG1 d5015      36.169  -4.616  58.199  0.00  0.00     0.149 C 
ATOM     15  C17 LG1 d5015      37.295  -5.636  58.055  0.00  0.00     0.084 C 
ATOM     16  C18 LG1 d5015      38.039  -5.778  59.406  0.00  0.00     0.022 C 
ATOM     17  O2  LG1 d5015      35.147  -4.732  57.500  0.00  0.00    -0.293 OA
ATOM     18  C19 LG1 d5015      37.546  -2.057  60.671  0.00  0.00     0.035 C 
ATOM     19  C20 LG1 d5015      37.971  -2.347  62.123  0.00  0.00     0.010 C 
ATOM     20  C21 LG1 d5015      39.770  -3.882  59.151  0.00  0.00     0.020 C 
ENDROOT
BRANCH   4  21
ATOM     21  C7  LG1 d5015      42.036  -5.182  66.065  0.00  0.00     0.128 C 
ATOM     22  O1  LG1 d5015      42.888  -4.453  66.527  0.00  0.00    -0.298 OA
ATOM     23  C8  LG1 d5015      42.218  -6.660  66.091  0.00  0.00     0.091 C 
ENDBRANCH   4  21
TORSDOF 1
ENDMDL
MODEL 3
REMARK VINA RESULT:    -5.178      2.854      6.910
REMARK INTER + INTRA:          -5.572
REMARK INTER:                  -5.370
REMARK INTRA:                  -0.202
REMARK UNBOUND:                -0.091
REMARK  1 active torsions:
REMARK  status: ('A' for Active; 'I' for Inactive)
REMARK    1  A    between atoms: C7_7  and  C4_4 
ROOT
ATOM      1  C1  LG1 d5015      39.151  -2.377  59.571  0.00  0.00    -0.004 C 
ATOM      2  C2  LG1 d5015      40.589  -2.891  59.701  0.00  0.00    -0.001 C 
ATOM      3  C3  LG1 d5015      40.694  -4.212  60.550  0.00  0.00    -0.030 C 
ATOM      4  C4  LG1 d5015      42.230  -4.468  60.394  0.00  0.00     0.063 C 
ATOM      5  C5  LG1 d5015      42.557  -4.085  58.908  0.00  0.00     0.013 C 
ATOM      6  C6  LG1 d5015      41.354  -3.214  58.395  0.00  0.00     0.006 C 
ATOM      7  C9  LG1 d5015      39.894  -5.414  59.934  0.00  0.00     0.016 C 
ATOM      8  C10 LG1 d5015      40.213  -3.843  61.970  0.00  0.00     0.011 C 
ATOM      9  C11 LG1 d5015      38.761  -3.288  61.945  0.00  0.00     0.007 C 
ATOM     10  C12 LG1 d5015      38.619  -2.061  61.008  0.00  0.00     0.002 C 
ATOM     11  C13 LG1 d5015      37.147  -1.504  61.006  0.00  0.00    -0.016 C 
ATOM     12  C14 LG1 d5015      37.076  -0.270  60.018  0.00  0.00    -0.068 C 
ATOM     13  C15 LG1 d5015      36.503   0.881  60.321  0.00  0.00     0.053 C 
ATOM     14  C16 LG1 d5015      35.770   1.064  61.565  0.00  0.00     0.149 C 
ATOM     15  C17 LG1 d5015      35.565  -0.114  62.512  0.00  0.00     0.084 C 
ATOM     16  C18 LG1 d5015      36.799  -1.048  62.449  0.00  0.00     0.022 C 
ATOM     17  O2  LG1 d5015      35.245   2.159  61.831  0.00  0.00    -0.293 OA
ATOM     18  C19 LG1 d5015      37.740  -0.418  58.653  0.00  0.00     0.035 C 
ATOM     19  C20 LG1 d5015      39.135  -1.064  58.747  0.00  0.00     0.010 C 
ATOM     20  C21 LG1 d5015      36.101  -2.558  60.476  0.00  0.00     0.020 C 
ENDROOT
BRANCH   4  21
ATOM     21  C7  LG1 d5015      42.700  -5.867  60.825  0.00  0.00     0.128 C 
ATOM     22  O1  LG1 d5015      42.598  -6.215  61.982  0.00  0.00    -0.298 OA
ATOM     23  C8  LG1 d5015      43.274  -6.794  59.810  0.00  0.00     0.091 C 
ENDBRANCH   4  21
TORSDOF 1
ENDMDL
MODEL 4
REMARK VINA RESULT:    -5.102      1.833      3.076
REMARK INTER + INTRA:          -5.492
REMARK INTER:                  -5.293
REMARK INTRA:                  -0.198
REMARK UNBOUND:                -0.091
REMARK  1 active torsions:
REMARK  status: ('A' for Active; 'I' for Inactive)
REMARK    1  A    between atoms: C7_7  and  C4_4 
ROOT
ATOM      1  C1  LG1 d5015      38.696  -2.624  60.134  0.00  0.00    -0.004 C 
ATOM      2  C2  LG1 d5015      38.267  -1.705  61.282  0.00  0.00    -0.001 C 
ATOM      3  C3  LG1 d5015      36.884  -0.999  61.020  0.00  0.00    -0.030 C 
ATOM      4  C4  LG1 d5015      36.744  -0.246  62.385  0.00  0.00     0.063 C 
ATOM      5  C5  LG1 d5015      37.278  -1.255  63.462  0.00  0.00     0.013 C 
ATOM      6  C6  LG1 d5015      38.112  -2.338  62.686  0.00  0.00     0.006 C 
ATOM      7  C9  LG1 d5015      35.693  -2.007  60.848  0.00  0.00     0.016 C 
ATOM      8  C10 LG1 d5015      37.093  -0.107  59.777  0.00  0.00     0.011 C 
ATOM      9  C11 LG1 d5015      37.552  -0.948  58.553  0.00  0.00     0.007 C 
ATOM     10  C12 LG1 d5015      38.846  -1.750  58.845  0.00  0.00     0.002 C 
ATOM     11  C13 LG1 d5015      39.305  -2.583  57.591  0.00  0.00    -0.016 C 
ATOM     12  C14 LG1 d5015      40.615  -3.385  57.970  0.00  0.00    -0.068 C 
ATOM     13  C15 LG1 d5015      41.694  -3.429  57.210  0.00  0.00     0.053 C 
ATOM     14  C16 LG1 d5015      41.717  -2.833  55.883  0.00  0.00     0.149 C 
ATOM     15  C17 LG1 d5015      40.448  -2.221  55.297  0.00  0.00     0.084 C 
ATOM     16  C18 LG1 d5015      39.606  -1.592  56.435  0.00  0.00     0.022 C 
ATOM     17  O2  LG1 d5015      42.748  -2.881  55.188  0.00  0.00    -0.293 OA
ATOM     18  C19 LG1 d5015      40.633  -4.119  59.307  0.00  0.00     0.035 C 
ATOM     19  C20 LG1 d5015      40.073  -3.258  60.455  0.00  0.00     0.010 C 
ATOM     20  C21 LG1 d5015      38.237  -3.657  57.154  0.00  0.00     0.020 C 
ENDROOT
BRANCH   4  21
ATOM     21  C7  LG1 d5015      35.345   0.327  62.667  0.00  0.00     0.128 C 
ATOM     22  O1  LG1 d5015      34.880   1.184  61.945  0.00  0.00    -0.298 OA
ATOM     23  C8  LG1 d5015      34.563  -0.183  63.827  0.00  0.00     0.091 C 
ENDBRANCH   4  21
TORSDOF 1
ENDMDL
MODEL 5
REMARK VINA RESULT:    -4.791      2.415      3.728
REMARK INTER + INTRA:          -5.162
REMARK INTER:                  -5.071
REMARK INTRA:                  -0.091
REMARK UNBOUND:                -0.091
REMARK  1 active torsions:
REMARK  status: ('A' for Active; 'I' for Inactive)
REMARK    1  A    between atoms: C7_7  and  C4_4 
ROOT
ATOM      1  C1  LG1 d5015      38.609  -3.353  61.493  0.00  0.00    -0.004 C 
ATOM      2  C2  LG1 d5015      38.181  -1.948  61.928  0.00  0.00    -0.001 C 
ATOM      3  C3  LG1 d5015      37.090  -1.318  60.984  0.00  0.00    -0.030 C 
ATOM      4  C4  LG1 d5015      36.852   0.019  61.762  0.00  0.00     0.063 C 
ATOM      5  C5  LG1 d5015      36.897  -0.380  63.279  0.00  0.00     0.013 C 
ATOM      6  C6  LG1 d5015      37.593  -1.788  63.351  0.00  0.00     0.006 C 
ATOM      7  C9  LG1 d5015      35.757  -2.145  60.935  0.00  0.00     0.016 C 
ATOM      8  C10 LG1 d5015      37.758  -1.181  59.598  0.00  0.00     0.011 C 
ATOM      9  C11 LG1 d5015      38.248  -2.559  59.073  0.00  0.00     0.007 C 
ATOM     10  C12 LG1 d5015      39.226  -3.249  60.059  0.00  0.00     0.002 C 
ATOM     11  C13 LG1 d5015      39.725  -4.634  59.505  0.00  0.00    -0.016 C 
ATOM     12  C14 LG1 d5015      40.700  -5.282  60.569  0.00  0.00    -0.068 C 
ATOM     13  C15 LG1 d5015      41.871  -5.811  60.265  0.00  0.00     0.053 C 
ATOM     14  C16 LG1 d5015      42.310  -5.951  58.885  0.00  0.00     0.149 C 
ATOM     15  C17 LG1 d5015      41.371  -5.574  57.742  0.00  0.00     0.084 C 
ATOM     16  C18 LG1 d5015      40.485  -4.380  58.175  0.00  0.00     0.022 C 
ATOM     17  O2  LG1 d5015      43.421  -6.445  58.624  0.00  0.00    -0.293 OA
ATOM     18  C19 LG1 d5015      40.266  -5.261  62.031  0.00  0.00     0.035 C 
ATOM     19  C20 LG1 d5015      39.700  -3.892  62.454  0.00  0.00     0.010 C 
ATOM     20  C21 LG1 d5015      38.547  -5.662  59.298  0.00  0.00     0.020 C 
ENDROOT
BRANCH   4  21
ATOM     21  C7  LG1 d5015      35.601   0.804  61.332  0.00  0.00     0.128 C 
ATOM     22  O1  LG1 d5015      35.648   1.551  60.378  0.00  0.00    -0.298 OA
ATOM     23  C8  LG1 d5015      34.331   0.634  62.091  0.00  0.00     0.091 C 
ENDBRANCH   4  21
TORSDOF 1
ENDMDL
