REMARK INTER + INTRA:          -5.476
REMARK INTER:                  -5.414
REMARK INTRA:                  -0.061
REMARK UNBOUND:                -0.061
REMARK  1 active torsions:
REMARK  status: ('A' for Active; 'I' for Inactive)
REMARK    1  A    between atoms: C7_7  and  C4_4 
ROOT
ATOM      1  C1  LG1 d5015      38.664  -3.183  61.947  0.00  0.00    -0.004 C 
ATOM      2  C2  LG1 d5015      38.169  -1.768  62.265  0.00  0.00    -0.001 C 
ATOM      3  C3  LG1 d5015      37.186  -1.202  61.173  0.00  0.00    -0.030 C 
ATOM      4  C4  LG1 d5015      36.840   0.163  61.856  0.00  0.00     0.063 C 
ATOM      5  C5  LG1 d5015      36.716  -0.167  63.385  0.00  0.00     0.013 C 
ATOM      6  C6  LG1 d5015      37.418  -1.556  63.602  0.00  0.00     0.006 C 
ATOM      7  C9  LG1 d5015      35.879  -2.056  61.009  0.00  0.00     0.016 C 
ATOM      8  C10 LG1 d5015      38.007  -1.114  59.868  0.00  0.00     0.011 C 
ATOM      9  C11 LG1 d5015      38.574  -2.505  59.467  0.00  0.00     0.007 C 
ATOM     10  C12 LG1 d5015      39.442  -3.130  60.590  0.00  0.00     0.002 C 
ATOM     11  C13 LG1 d5015      40.020  -4.529  60.161  0.00  0.00    -0.016 C 
ATOM     12  C14 LG1 d5015      40.875  -5.110  61.360  0.00  0.00    -0.068 C 
ATOM     13  C15 LG1 d5015      42.081  -5.629  61.217  0.00  0.00     0.053 C 
ATOM     14  C16 LG1 d5015      42.678  -5.822  59.905  0.00  0.00     0.149 C 
ATOM     15  C17 LG1 d5015      41.873  -5.514  58.646  0.00  0.00     0.084 C 
ATOM     16  C18 LG1 d5015      40.925  -4.320  58.918  0.00  0.00     0.022 C 
ATOM     17  O2  LG1 d5015      43.819  -6.306  59.796  0.00  0.00    -0.293 OA
ATOM     18  C19 LG1 d5015      40.275  -5.032  62.760  0.00  0.00     0.035 C 
ATOM     19  C20 LG1 d5015      39.644  -3.657  63.051  0.00  0.00     0.010 C 
ATOM     20  C21 LG1 d5015      38.889  -5.588  59.869  0.00  0.00     0.020 C 
ENDROOT
BRANCH   4  21
ATOM     21  C7  LG1 d5015      35.637   0.904  61.249  0.00  0.00     0.128 C 
ATOM     22  O1  LG1 d5015      35.791   1.643  60.301  0.00  0.00    -0.298 OA
ATOM     23  C8  LG1 d5015      34.281   0.699  61.829  0.00  0.00     0.091 C 
ENDBRANCH   4  21
TORSDOF 1
ENDMDL
