REMARK INTER + INTRA:          -5.280
REMARK INTER:                  -5.114
REMARK INTRA:                  -0.167
REMARK UNBOUND:                -0.167
REMARK  1 active torsions:
REMARK  status: ('A' for Active; 'I' for Inactive)
REMARK    1  A    between atoms: C10_13  and  C11_14 
ROOT
ATOM      1  C1  LG1 d5015      37.638   0.566  57.316  0.00  0.00     0.018 C 
ATOM      2  C2  LG1 d5015      37.697  -0.378  58.459  0.00  0.00     0.193 C 
ATOM      3  C3  LG1 d5015      37.139   0.153  59.721  0.00  0.00     0.049 A 
ATOM      4  C4  LG1 d5015      37.236  -0.593  60.898  0.00  0.00     0.037 A 
ATOM      5  C5  LG1 d5015      36.653  -0.112  62.071  0.00  0.00     0.012 A 
ATOM      6  C6  LG1 d5015      35.969   1.104  62.069  0.00  0.00     0.022 A 
ATOM      7  C7  LG1 d5015      35.870   1.847  60.892  0.00  0.00     0.039 A 
ATOM      8  C8  LG1 d5015      36.469   1.382  59.721  0.00  0.00     0.083 A 
ATOM      9  O1  LG1 d5015      36.318   2.152  58.599  0.00  0.00    -0.346 OA
ATOM     10  C9  LG1 d5015      37.390   1.999  57.661  0.00  0.00     0.218 C 
ATOM     11 BR1  LG1 d5015      36.807  -1.102  63.675  0.00  0.00    -0.051 Br
ATOM     12  O2  LG1 d5015      38.165  -1.505  58.385  0.00  0.00    -0.287 OA
ATOM     13  C10 LG1 d5015      37.811   0.104  56.072  0.00  0.00     0.025 C 
ENDROOT
BRANCH  13  14
ATOM     14  C11 LG1 d5015      37.775   0.914  54.891  0.00  0.00    -0.029 A 
ATOM     15  C14 LG1 d5015      38.894   1.525  54.370  0.00  0.00     0.061 A 
ATOM     16  S1  LG1 d5015      38.535   2.423  52.957  0.00  0.00    -0.113 SA
ATOM     17  C13 LG1 d5015      36.880   1.996  53.040  0.00  0.00     0.050 A 
ATOM     18  C12 LG1 d5015      36.608   1.187  54.120  0.00  0.00     0.019 A 
ENDBRANCH  13  14
TORSDOF 1
ENDMDL
