REMARK INTER + INTRA:          -8.653
REMARK INTER:                  -8.158
REMARK INTRA:                  -0.495
REMARK UNBOUND:                -0.516
REMARK  2 active torsions:
REMARK  status: ('A' for Active; 'I' for Inactive)
REMARK    1  A    between atoms: C1_1  and  N1_15 
REMARK    2  A    between atoms: C7_9  and  C4_4 
ROOT
ATOM      1  C1  LG1 d5015      37.317   0.449  59.245  0.00  0.00     0.141 A 
ATOM      2  C2  LG1 d5015      37.611  -0.690  59.996  0.00  0.00     0.187 A 
ATOM      3  C3  LG1 d5015      37.096  -0.828  61.284  0.00  0.00     0.175 A 
ATOM      4  C4  LG1 d5015      36.288   0.173  61.823  0.00  0.00     0.131 A 
ATOM      5  C5  LG1 d5015      35.995   1.312  61.074  0.00  0.00     0.175 A 
ATOM      6  C6  LG1 d5015      36.509   1.449  59.785  0.00  0.00     0.187 A 
ATOM      7  F1  LG1 d5015      36.219   2.550  59.076  0.00  0.00    -0.200 F 
ATOM      8  F2  LG1 d5015      35.218   2.279  61.584  0.00  0.00    -0.202 F 
ATOM      9  F6  LG1 d5015      37.384  -1.927  61.997  0.00  0.00    -0.202 F 
ATOM     10  F7  LG1 d5015      38.387  -1.660  59.490  0.00  0.00    -0.200 F 
ENDROOT
BRANCH   1  11
ATOM     11  N1  LG1 d5015      37.828   0.587  57.968  0.00  0.00    -0.232 N 
ATOM     12  N2  LG1 d5015      37.220  -0.023  56.936  0.00  0.00    -0.172 NA
ATOM     13  C10 LG1 d5015      37.974   0.325  55.891  0.00  0.00     0.053 A 
ATOM     14  C9  LG1 d5015      39.056   1.151  56.251  0.00  0.00     0.055 A 
ATOM     15  C11 LG1 d5015      37.624  -0.156  54.543  0.00  0.00     0.072 C 
ATOM     16  C8  LG1 d5015      38.932   1.303  57.611  0.00  0.00     0.035 A 
ATOM     17  C12 LG1 d5015      39.761   2.058  58.571  0.00  0.00     0.070 C 
ENDBRANCH   1  11
BRANCH   4  18
ATOM     18  C7  LG1 d5015      35.738   0.025  63.202  0.00  0.00     0.423 C 
ATOM     19  F4  LG1 d5015      35.829   1.162  63.952  0.00  0.00    -0.166 F 
ATOM     20  F3  LG1 d5015      36.363  -0.939  63.940  0.00  0.00    -0.166 F 
ATOM     21  F5  LG1 d5015      34.415  -0.312  63.206  0.00  0.00    -0.166 F 
ENDBRANCH   4  18
TORSDOF 2
ENDMDL
