REMARK INTER + INTRA:          -6.026
REMARK INTER:                  -5.875
REMARK INTRA:                  -0.152
REMARK UNBOUND:                -0.169
REMARK  1 active torsions:
REMARK  status: ('A' for Active; 'I' for Inactive)
REMARK    1  A    between atoms: C10_13  and  C11_14 
ROOT
ATOM      1  C1  LG1 d5015      36.762   1.143  59.395  0.00  0.00     0.018 C 
ATOM      2  C2  LG1 d5015      37.038   1.902  58.149  0.00  0.00     0.193 C 
ATOM      3  C3  LG1 d5015      37.625   1.095  57.059  0.00  0.00     0.049 A 
ATOM      4  C4  LG1 d5015      38.036   1.711  55.875  0.00  0.00     0.037 A 
ATOM      5  C5  LG1 d5015      38.532   0.934  54.828  0.00  0.00     0.012 A 
ATOM      6  C6  LG1 d5015      38.610  -0.454  54.956  0.00  0.00     0.022 A 
ATOM      7  C7  LG1 d5015      38.196  -1.069  56.139  0.00  0.00     0.039 A 
ATOM      8  C8  LG1 d5015      37.719  -0.295  57.197  0.00  0.00     0.083 A 
ATOM      9  O1  LG1 d5015      37.314  -0.965  58.321  0.00  0.00    -0.346 OA
ATOM     10  C9  LG1 d5015      37.434  -0.185  59.516  0.00  0.00     0.218 C 
ATOM     11 BR1  LG1 d5015      39.119   1.764  53.233  0.00  0.00    -0.051 Br
ATOM     12  O2  LG1 d5015      36.809   3.095  58.017  0.00  0.00    -0.287 OA
ATOM     13  C10 LG1 d5015      35.953   1.673  60.321  0.00  0.00     0.025 C 
ENDROOT
BRANCH  13  14
ATOM     14  C11 LG1 d5015      35.611   1.040  61.559  0.00  0.00    -0.029 A 
ATOM     15  C14 LG1 d5015      34.588   0.126  61.673  0.00  0.00     0.061 A 
ATOM     16  S1  LG1 d5015      34.422  -0.456  63.274  0.00  0.00    -0.113 SA
ATOM     17  C13 LG1 d5015      35.721   0.514  63.821  0.00  0.00     0.050 A 
ATOM     18  C12 LG1 d5015      36.268   1.264  62.803  0.00  0.00     0.019 A 
ENDBRANCH  13  14
TORSDOF 1
ENDMDL
