REMARK INTER + INTRA:          -6.046
REMARK INTER:                  -5.883
REMARK INTRA:                  -0.163
REMARK UNBOUND:                -0.162
REMARK  1 active torsions:
REMARK  status: ('A' for Active; 'I' for Inactive)
REMARK    1  A    between atoms: C10_13  and  C11_14 
ROOT
ATOM      1  C1  LG1 d5015      36.784   1.160  59.427  0.00  0.00     0.018 C 
ATOM      2  C2  LG1 d5015      37.055   1.917  58.180  0.00  0.00     0.193 C 
ATOM      3  C3  LG1 d5015      37.692   1.123  57.108  0.00  0.00     0.049 A 
ATOM      4  C4  LG1 d5015      38.101   1.744  55.926  0.00  0.00     0.037 A 
ATOM      5  C5  LG1 d5015      38.647   0.977  54.895  0.00  0.00     0.012 A 
ATOM      6  C6  LG1 d5015      38.775  -0.405  55.039  0.00  0.00     0.022 A 
ATOM      7  C7  LG1 d5015      38.363  -1.025  56.220  0.00  0.00     0.039 A 
ATOM      8  C8  LG1 d5015      37.837  -0.261  57.262  0.00  0.00     0.083 A 
ATOM      9  O1  LG1 d5015      37.437  -0.935  58.385  0.00  0.00    -0.346 OA
ATOM     10  C9  LG1 d5015      37.505  -0.140  59.574  0.00  0.00     0.218 C 
ATOM     11 BR1  LG1 d5015      39.231   1.815  53.303  0.00  0.00    -0.051 Br
ATOM     12  O2  LG1 d5015      36.782   3.100  58.031  0.00  0.00    -0.287 OA
ATOM     13  C10 LG1 d5015      35.939   1.667  60.333  0.00  0.00     0.025 C 
ENDROOT
BRANCH  13  14
ATOM     14  C11 LG1 d5015      35.598   1.032  61.571  0.00  0.00    -0.029 A 
ATOM     15  C14 LG1 d5015      34.572   0.122  61.686  0.00  0.00     0.061 A 
ATOM     16  S1  LG1 d5015      34.410  -0.464  63.286  0.00  0.00    -0.113 SA
ATOM     17  C13 LG1 d5015      35.714   0.501  63.830  0.00  0.00     0.050 A 
ATOM     18  C12 LG1 d5015      36.260   1.251  62.814  0.00  0.00     0.019 A 
ENDBRANCH  13  14
TORSDOF 1
ENDMDL
