REMARK INTER + INTRA:          -6.031
REMARK INTER:                  -5.879
REMARK INTRA:                  -0.152
REMARK UNBOUND:                -0.167
REMARK  1 active torsions:
REMARK  status: ('A' for Active; 'I' for Inactive)
REMARK    1  A    between atoms: C10_13  and  C11_14 
ROOT
ATOM      1  C1  LG1 d5015      36.780   1.148  59.381  0.00  0.00     0.018 C 
ATOM      2  C2  LG1 d5015      37.067   1.912  58.141  0.00  0.00     0.193 C 
ATOM      3  C3  LG1 d5015      37.645   1.105  57.046  0.00  0.00     0.049 A 
ATOM      4  C4  LG1 d5015      38.064   1.725  55.866  0.00  0.00     0.037 A 
ATOM      5  C5  LG1 d5015      38.552   0.949  54.814  0.00  0.00     0.012 A 
ATOM      6  C6  LG1 d5015      38.613  -0.440  54.933  0.00  0.00     0.022 A 
ATOM      7  C7  LG1 d5015      38.190  -1.058  56.111  0.00  0.00     0.039 A 
ATOM      8  C8  LG1 d5015      37.722  -0.287  57.174  0.00  0.00     0.083 A 
ATOM      9  O1  LG1 d5015      37.308  -0.959  58.293  0.00  0.00    -0.346 OA
ATOM     10  C9  LG1 d5015      37.436  -0.190  59.494  0.00  0.00     0.218 C 
ATOM     11 BR1  LG1 d5015      39.150   1.784  53.225  0.00  0.00    -0.051 Br
ATOM     12  O2  LG1 d5015      36.852   3.109  58.017  0.00  0.00    -0.287 OA
ATOM     13  C10 LG1 d5015      35.977   1.681  60.311  0.00  0.00     0.025 C 
ENDROOT
BRANCH  13  14
ATOM     14  C11 LG1 d5015      35.626   1.043  61.544  0.00  0.00    -0.029 A 
ATOM     15  C14 LG1 d5015      34.590   0.142  61.651  0.00  0.00     0.061 A 
ATOM     16  S1  LG1 d5015      34.417  -0.449  63.248  0.00  0.00    -0.113 SA
ATOM     17  C13 LG1 d5015      35.730   0.499  63.801  0.00  0.00     0.050 A 
ATOM     18  C12 LG1 d5015      36.287   1.250  62.789  0.00  0.00     0.019 A 
ENDBRANCH  13  14
TORSDOF 1
ENDMDL
