REMARK INTER + INTRA:          -5.623
REMARK INTER:                  -5.865
REMARK INTRA:                   0.243
REMARK UNBOUND:                -0.162
REMARK  1 active torsions:
REMARK  status: ('A' for Active; 'I' for Inactive)
REMARK    1  A    between atoms: C10_13  and  C11_14 
ROOT
ATOM      1  C1  LG1 d5015      38.500  -2.249  63.466  0.00  0.00     0.018 C 
ATOM      2  C2  LG1 d5015      39.528  -2.760  64.407  0.00  0.00     0.193 C 
ATOM      3  C3  LG1 d5015      40.577  -3.588  63.775  0.00  0.00     0.049 A 
ATOM      4  C4  LG1 d5015      41.539  -4.222  64.565  0.00  0.00     0.037 A 
ATOM      5  C5  LG1 d5015      42.561  -4.951  63.957  0.00  0.00     0.012 A 
ATOM      6  C6  LG1 d5015      42.631  -5.041  62.567  0.00  0.00     0.022 A 
ATOM      7  C7  LG1 d5015      41.671  -4.404  61.778  0.00  0.00     0.039 A 
ATOM      8  C8  LG1 d5015      40.635  -3.692  62.380  0.00  0.00     0.083 A 
ATOM      9  O1  LG1 d5015      39.738  -3.078  61.547  0.00  0.00    -0.346 OA
ATOM     10  C9  LG1 d5015      38.441  -2.919  62.132  0.00  0.00     0.218 C 
ATOM     11 BR1  LG1 d5015      43.849  -5.838  65.022  0.00  0.00    -0.051 Br
ATOM     12  O2  LG1 d5015      39.524  -2.529  65.607  0.00  0.00    -0.287 OA
ATOM     13  C10 LG1 d5015      37.699  -1.247  63.850  0.00  0.00     0.025 C 
ENDROOT
BRANCH  13  14
ATOM     14  C11 LG1 d5015      36.673  -0.669  63.034  0.00  0.00    -0.029 A 
ATOM     15  C14 LG1 d5015      36.888  -0.270  61.734  0.00  0.00     0.061 A 
ATOM     16  S1  LG1 d5015      35.475   0.379  61.019  0.00  0.00    -0.113 SA
ATOM     17  C13 LG1 d5015      34.570   0.128  62.450  0.00  0.00     0.050 A 
ATOM     18  C12 LG1 d5015      35.329  -0.439  63.449  0.00  0.00     0.019 A 
ENDBRANCH  13  14
TORSDOF 1
ENDMDL
