REMARK INTER + INTRA:          -4.919
REMARK INTER:                  -4.768
REMARK INTRA:                  -0.151
REMARK UNBOUND:                -0.208
REMARK  1 active torsions:
REMARK  status: ('A' for Active; 'I' for Inactive)
REMARK    1  A    between atoms: C1_1  and  N1_10 
ROOT
ATOM      1  C1  LG1 d5015      38.019   0.825  58.683  0.00  0.00     0.056 A 
ATOM      2  C2  LG1 d5015      38.206  -0.280  59.514  0.00  0.00    -0.033 A 
ATOM      3  C3  LG1 d5015      37.303  -0.537  60.545  0.00  0.00     0.028 A 
ATOM      4  C4  LG1 d5015      36.213   0.309  60.746  0.00  0.00     0.012 A 
ATOM      5  C5  LG1 d5015      36.026   1.415  59.915  0.00  0.00     0.028 A 
ATOM      6  C6  LG1 d5015      36.929   1.672  58.885  0.00  0.00    -0.033 A 
ATOM      7  C7  LG1 d5015      36.703   2.864  58.012  0.00  0.00     0.050 C 
ATOM      8 BR1  LG1 d5015      34.991  -0.040  62.146  0.00  0.00    -0.051 Br
ATOM      9  C8  LG1 d5015      39.363  -1.206  59.322  0.00  0.00     0.050 C 
ENDROOT
BRANCH   1  10
ATOM     10  N1  LG1 d5015      38.947   1.090  57.621  0.00  0.00    -0.265 N 
ATOM     11  C11 LG1 d5015      38.907   0.466  56.373  0.00  0.00     0.148 C 
ATOM     12  S2  LG1 d5015      37.732  -0.513  55.688  0.00  0.00    -0.052 SA
ATOM     13  S1  LG1 d5015      40.322   0.939  55.438  0.00  0.00    -0.090 SA
ATOM     14  C10 LG1 d5015      40.816   2.211  56.599  0.00  0.00     0.185 C 
ATOM     15  C9  LG1 d5015      39.978   2.016  57.829  0.00  0.00     0.239 C 
ATOM     16  O1  LG1 d5015      40.239   2.622  58.866  0.00  0.00    -0.272 OA
ENDBRANCH   1  10
TORSDOF 1
ENDMDL
