REMARK INTER + INTRA:          -5.300
REMARK INTER:                  -5.181
REMARK INTRA:                  -0.118
REMARK UNBOUND:                -0.208
REMARK  1 active torsions:
REMARK  status: ('A' for Active; 'I' for Inactive)
REMARK    1  A    between atoms: C1_1  and  N1_10 
ROOT
ATOM      1  C1  LG1 d5015      37.751   0.557  58.745  0.00  0.00     0.056 A 
ATOM      2  C2  LG1 d5015      36.763   1.509  58.996  0.00  0.00    -0.033 A 
ATOM      3  C3  LG1 d5015      36.017   1.445  60.173  0.00  0.00     0.028 A 
ATOM      4  C4  LG1 d5015      36.258   0.430  61.098  0.00  0.00     0.012 A 
ATOM      5  C5  LG1 d5015      37.246  -0.524  60.846  0.00  0.00     0.028 A 
ATOM      6  C6  LG1 d5015      37.991  -0.459  59.669  0.00  0.00    -0.033 A 
ATOM      7  C7  LG1 d5015      39.043  -1.494  59.427  0.00  0.00     0.050 C 
ATOM      8 BR1  LG1 d5015      35.246   0.343  62.692  0.00  0.00    -0.051 Br
ATOM      9  C8  LG1 d5015      36.483   2.610  58.025  0.00  0.00     0.050 C 
ENDROOT
BRANCH   1  10
ATOM     10  N1  LG1 d5015      38.520   0.623  57.534  0.00  0.00    -0.265 N 
ATOM     11  C11 LG1 d5015      39.612   1.470  57.347  0.00  0.00     0.148 C 
ATOM     12  S2  LG1 d5015      40.456   2.411  58.447  0.00  0.00    -0.052 SA
ATOM     13  S1  LG1 d5015      40.150   1.369  55.674  0.00  0.00    -0.090 SA
ATOM     14  C10 LG1 d5015      39.104  -0.036  55.294  0.00  0.00     0.185 C 
ATOM     15  C9  LG1 d5015      38.161  -0.192  56.451  0.00  0.00     0.239 C 
ATOM     16  O1  LG1 d5015      37.199  -0.952  56.376  0.00  0.00    -0.272 OA
ENDBRANCH   1  10
TORSDOF 1
ENDMDL
