REMARK INTER + INTRA:          -5.443
REMARK INTER:                  -5.275
REMARK INTRA:                  -0.169
REMARK UNBOUND:                -0.167
REMARK  1 active torsions:
REMARK  status: ('A' for Active; 'I' for Inactive)
REMARK    1  A    between atoms: C10_13  and  C11_14 
ROOT
ATOM      1  C1  LG1 d5015      38.836  -2.578  60.820  0.00  0.00     0.018 C 
ATOM      2  C2  LG1 d5015      38.808  -1.670  59.647  0.00  0.00     0.193 C 
ATOM      3  C3  LG1 d5015      37.849  -0.550  59.762  0.00  0.00     0.049 A 
ATOM      4  C4  LG1 d5015      37.645   0.311  58.682  0.00  0.00     0.037 A 
ATOM      5  C5  LG1 d5015      36.783   1.400  58.820  0.00  0.00     0.012 A 
ATOM      6  C6  LG1 d5015      36.136   1.636  60.033  0.00  0.00     0.022 A 
ATOM      7  C7  LG1 d5015      36.344   0.777  61.113  0.00  0.00     0.039 A 
ATOM      8  C8  LG1 d5015      37.187  -0.326  60.975  0.00  0.00     0.083 A 
ATOM      9  O1  LG1 d5015      37.359  -1.117  62.080  0.00  0.00    -0.346 OA
ATOM     10  C9  LG1 d5015      37.676  -2.475  61.756  0.00  0.00     0.218 C 
ATOM     11 BR1  LG1 d5015      36.478   2.552  57.351  0.00  0.00    -0.051 Br
ATOM     12  O2  LG1 d5015      39.509  -1.818  58.657  0.00  0.00    -0.287 OA
ATOM     13  C10 LG1 d5015      39.864  -3.422  60.973  0.00  0.00     0.025 C 
ENDROOT
BRANCH  13  14
ATOM     14  C11 LG1 d5015      40.004  -4.343  62.061  0.00  0.00    -0.029 A 
ATOM     15  C14 LG1 d5015      39.561  -5.645  61.999  0.00  0.00     0.061 A 
ATOM     16  S1  LG1 d5015      39.870  -6.497  63.452  0.00  0.00    -0.113 SA
ATOM     17  C13 LG1 d5015      40.598  -5.124  64.168  0.00  0.00     0.050 A 
ATOM     18  C12 LG1 d5015      40.605  -4.041  63.317  0.00  0.00     0.019 A 
ENDBRANCH  13  14
TORSDOF 1
ENDMDL
