REMARK INTER + INTRA:          -7.613
REMARK INTER:                  -7.064
REMARK INTRA:                  -0.549
REMARK UNBOUND:                -0.516
REMARK  2 active torsions:
REMARK  status: ('A' for Active; 'I' for Inactive)
REMARK    1  A    between atoms: C1_1  and  N1_15 
REMARK    2  A    between atoms: C7_9  and  C4_4 
ROOT
ATOM      1  C1  LG1 d5015      38.041  -1.860  60.754  0.00  0.00     0.141 A 
ATOM      2  C2  LG1 d5015      37.987  -2.093  62.128  0.00  0.00     0.187 A 
ATOM      3  C3  LG1 d5015      37.112  -1.357  62.926  0.00  0.00     0.175 A 
ATOM      4  C4  LG1 d5015      36.292  -0.386  62.351  0.00  0.00     0.131 A 
ATOM      5  C5  LG1 d5015      36.347  -0.152  60.978  0.00  0.00     0.175 A 
ATOM      6  C6  LG1 d5015      37.221  -0.889  60.180  0.00  0.00     0.187 A 
ATOM      7  F1  LG1 d5015      37.263  -0.652  58.860  0.00  0.00    -0.200 F 
ATOM      8  F2  LG1 d5015      35.563   0.780  60.416  0.00  0.00    -0.202 F 
ATOM      9  F6  LG1 d5015      37.067  -1.591  64.247  0.00  0.00    -0.202 F 
ATOM     10  F7  LG1 d5015      38.769  -3.024  62.694  0.00  0.00    -0.200 F 
ENDROOT
BRANCH   1  11
ATOM     11  N1  LG1 d5015      38.909  -2.589  59.962  0.00  0.00    -0.232 N 
ATOM     12  N2  LG1 d5015      40.163  -2.149  59.764  0.00  0.00    -0.172 NA
ATOM     13  C10 LG1 d5015      40.691  -3.082  58.969  0.00  0.00     0.053 A 
ATOM     14  C9  LG1 d5015      39.781  -4.111  58.660  0.00  0.00     0.055 A 
ATOM     15  C11 LG1 d5015      42.088  -2.956  58.520  0.00  0.00     0.072 C 
ATOM     16  C8  LG1 d5015      38.630  -3.760  59.322  0.00  0.00     0.035 A 
ATOM     17  C12 LG1 d5015      37.320  -4.437  59.392  0.00  0.00     0.070 C 
ENDBRANCH   1  11
BRANCH   4  18
ATOM     18  C7  LG1 d5015      35.357   0.402  63.206  0.00  0.00     0.423 C 
ATOM     19  F4  LG1 d5015      34.597  -0.368  64.039  0.00  0.00    -0.166 F 
ATOM     20  F3  LG1 d5015      34.462   1.148  62.494  0.00  0.00    -0.166 F 
ATOM     21  F5  LG1 d5015      36.007   1.286  64.017  0.00  0.00    -0.166 F 
ENDBRANCH   4  18
TORSDOF 2
ENDMDL
