REMARK INTER + INTRA:          -6.033
REMARK INTER:                  -5.883
REMARK INTRA:                  -0.150
REMARK UNBOUND:                -0.119
REMARK  1 active torsions:
REMARK  status: ('A' for Active; 'I' for Inactive)
REMARK    1  A    between atoms: C10_13  and  C11_14 
ROOT
ATOM      1  C1  LG1 d5015      36.742   1.138  59.432  0.00  0.00     0.018 C 
ATOM      2  C2  LG1 d5015      37.034   1.903  58.194  0.00  0.00     0.193 C 
ATOM      3  C3  LG1 d5015      37.604   1.095  57.095  0.00  0.00     0.049 A 
ATOM      4  C4  LG1 d5015      38.027   1.714  55.917  0.00  0.00     0.037 A 
ATOM      5  C5  LG1 d5015      38.507   0.937  54.862  0.00  0.00     0.012 A 
ATOM      6  C6  LG1 d5015      38.556  -0.453  54.977  0.00  0.00     0.022 A 
ATOM      7  C7  LG1 d5015      38.129  -1.071  56.153  0.00  0.00     0.039 A 
ATOM      8  C8  LG1 d5015      37.669  -0.298  57.219  0.00  0.00     0.083 A 
ATOM      9  O1  LG1 d5015      37.250  -0.970  58.337  0.00  0.00    -0.346 OA
ATOM     10  C9  LG1 d5015      37.387  -0.205  59.539  0.00  0.00     0.218 C 
ATOM     11 BR1  LG1 d5015      39.111   1.771  53.275  0.00  0.00    -0.051 Br
ATOM     12  O2  LG1 d5015      36.830   3.102  58.073  0.00  0.00    -0.287 OA
ATOM     13  C10 LG1 d5015      35.945   1.676  60.363  0.00  0.00     0.025 C 
ENDROOT
BRANCH  13  14
ATOM     14  C11 LG1 d5015      35.590   1.037  61.595  0.00  0.00    -0.029 A 
ATOM     15  C14 LG1 d5015      34.550   0.141  61.699  0.00  0.00     0.061 A 
ATOM     16  S1  LG1 d5015      34.372  -0.454  63.295  0.00  0.00    -0.113 SA
ATOM     17  C13 LG1 d5015      35.688   0.489  63.852  0.00  0.00     0.050 A 
ATOM     18  C12 LG1 d5015      36.250   1.239  62.842  0.00  0.00     0.019 A 
ENDBRANCH  13  14
TORSDOF 1
ENDMDL
