REMARK INTER + INTRA:          -5.350
REMARK INTER:                  -5.187
REMARK INTRA:                  -0.162
REMARK UNBOUND:                -0.162
REMARK  1 active torsions:
REMARK  status: ('A' for Active; 'I' for Inactive)
REMARK    1  A    between atoms: C10_13  and  C11_14 
ROOT
ATOM      1  C1  LG1 d5015      38.848  -2.621  60.776  0.00  0.00     0.018 C 
ATOM      2  C2  LG1 d5015      38.826  -1.673  59.635  0.00  0.00     0.193 C 
ATOM      3  C3  LG1 d5015      37.864  -0.559  59.782  0.00  0.00     0.049 A 
ATOM      4  C4  LG1 d5015      37.666   0.338  58.731  0.00  0.00     0.037 A 
ATOM      5  C5  LG1 d5015      36.802   1.421  58.901  0.00  0.00     0.012 A 
ATOM      6  C6  LG1 d5015      36.146   1.614  60.118  0.00  0.00     0.022 A 
ATOM      7  C7  LG1 d5015      36.348   0.718  61.169  0.00  0.00     0.039 A 
ATOM      8  C8  LG1 d5015      37.194  -0.378  60.998  0.00  0.00     0.083 A 
ATOM      9  O1  LG1 d5015      37.360  -1.207  62.076  0.00  0.00    -0.346 OA
ATOM     10  C9  LG1 d5015      37.681  -2.553  61.707  0.00  0.00     0.218 C 
ATOM     11 BR1  LG1 d5015      36.504   2.623  57.471  0.00  0.00    -0.051 Br
ATOM     12  O2  LG1 d5015      39.534  -1.785  58.645  0.00  0.00    -0.287 OA
ATOM     13  C10 LG1 d5015      39.876  -3.468  60.907  0.00  0.00     0.025 C 
ENDROOT
BRANCH  13  14
ATOM     14  C11 LG1 d5015      40.010  -4.426  61.963  0.00  0.00    -0.029 A 
ATOM     15  C14 LG1 d5015      40.713  -4.172  63.118  0.00  0.00     0.061 A 
ATOM     16  S1  LG1 d5015      40.692  -5.506  64.190  0.00  0.00    -0.113 SA
ATOM     17  C13 LG1 d5015      39.741  -6.430  63.108  0.00  0.00     0.050 A 
ATOM     18  C12 LG1 d5015      39.446  -5.736  61.957  0.00  0.00     0.019 A 
ENDBRANCH  13  14
TORSDOF 1
ENDMDL
