MODEL 1
REMARK VINA RESULT:    -5.573      0.000      0.000
REMARK INTER + INTRA:          -6.003
REMARK INTER:                  -5.836
REMARK INTRA:                  -0.166
REMARK UNBOUND:                -0.105
REMARK  1 active torsions:
REMARK  status: ('A' for Active; 'I' for Inactive)
REMARK    1  A    between atoms: C10_13  and  C11_14 
ROOT
ATOM      1  C1  LG1 d5015      36.782   1.126  59.461  0.00  0.00     0.018 C 
ATOM      2  C2  LG1 d5015      37.047   1.893  58.219  0.00  0.00     0.193 C 
ATOM      3  C3  LG1 d5015      37.611   1.091  57.112  0.00  0.00     0.049 A 
ATOM      4  C4  LG1 d5015      38.010   1.714  55.928  0.00  0.00     0.037 A 
ATOM      5  C5  LG1 d5015      38.485   0.942  54.867  0.00  0.00     0.012 A 
ATOM      6  C6  LG1 d5015      38.552  -0.447  54.982  0.00  0.00     0.022 A 
ATOM      7  C7  LG1 d5015      38.150  -1.069  56.165  0.00  0.00     0.039 A 
ATOM      8  C8  LG1 d5015      37.695  -0.301  57.237  0.00  0.00     0.083 A 
ATOM      9  O1  LG1 d5015      37.300  -0.978  58.361  0.00  0.00    -0.346 OA
ATOM     10  C9  LG1 d5015      37.445  -0.210  59.560  0.00  0.00     0.218 C 
ATOM     11 BR1  LG1 d5015      39.056   1.782  53.271  0.00  0.00    -0.051 Br
ATOM     12  O2  LG1 d5015      36.827   3.089  58.100  0.00  0.00    -0.287 OA
ATOM     13  C10 LG1 d5015      35.992   1.654  60.404  0.00  0.00     0.025 C 
ENDROOT
BRANCH  13  14
ATOM     14  C11 LG1 d5015      35.662   1.012  61.641  0.00  0.00    -0.029 A 
ATOM     15  C14 LG1 d5015      34.579   0.174  61.783  0.00  0.00     0.061 A 
ATOM     16  S1  LG1 d5015      34.446  -0.441  63.374  0.00  0.00    -0.113 SA
ATOM     17  C13 LG1 d5015      35.841   0.415  63.879  0.00  0.00     0.050 A 
ATOM     18  C12 LG1 d5015      36.394   1.151  62.856  0.00  0.00     0.019 A 
ENDBRANCH  13  14
TORSDOF 1
ENDMDL
MODEL 2
REMARK VINA RESULT:    -5.216      4.043      6.547
REMARK INTER + INTRA:          -5.625
REMARK INTER:                  -5.458
REMARK INTRA:                  -0.168
REMARK UNBOUND:                -0.105
REMARK  1 active torsions:
REMARK  status: ('A' for Active; 'I' for Inactive)
REMARK    1  A    between atoms: C10_13  and  C11_14 
ROOT
ATOM      1  C1  LG1 d5015      37.743   1.092  57.963  0.00  0.00     0.018 C 
ATOM      2  C2  LG1 d5015      36.853   1.467  59.091  0.00  0.00     0.193 C 
ATOM      3  C3  LG1 d5015      36.795   0.471  60.182  0.00  0.00     0.049 A 
ATOM      4  C4  LG1 d5015      35.910   0.650  61.247  0.00  0.00     0.037 A 
ATOM      5  C5  LG1 d5015      35.906  -0.262  62.303  0.00  0.00     0.012 A 
ATOM      6  C6  LG1 d5015      36.787  -1.344  62.301  0.00  0.00     0.022 A 
ATOM      7  C7  LG1 d5015      37.674  -1.520  61.238  0.00  0.00     0.039 A 
ATOM      8  C8  LG1 d5015      37.668  -0.624  60.170  0.00  0.00     0.083 A 
ATOM      9  O1  LG1 d5015      38.576  -0.846  59.168  0.00  0.00    -0.346 OA
ATOM     10  C9  LG1 d5015      38.148  -0.345  57.897  0.00  0.00     0.218 C 
ATOM     11 BR1  LG1 d5015      34.688  -0.043  63.733  0.00  0.00    -0.051 Br
ATOM     12  O2  LG1 d5015      36.211   2.506  59.132  0.00  0.00    -0.287 OA
ATOM     13  C10 LG1 d5015      38.123   2.030  57.087  0.00  0.00     0.025 C 
ENDROOT
BRANCH  13  14
ATOM     14  C11 LG1 d5015      38.977   1.792  55.962  0.00  0.00    -0.029 A 
ATOM     15  C14 LG1 d5015      38.499   1.440  54.720  0.00  0.00     0.061 A 
ATOM     16  S1  LG1 d5015      39.759   1.226  53.583  0.00  0.00    -0.113 SA
ATOM     17  C13 LG1 d5015      40.952   1.605  54.751  0.00  0.00     0.050 A 
ATOM     18  C12 LG1 d5015      40.400   1.889  55.980  0.00  0.00     0.019 A 
ENDBRANCH  13  14
TORSDOF 1
ENDMDL
MODEL 3
REMARK VINA RESULT:    -5.034      4.266      6.956
REMARK INTER + INTRA:          -5.433
REMARK INTER:                  -5.267
REMARK INTRA:                  -0.165
REMARK UNBOUND:                -0.105
REMARK  1 active torsions:
REMARK  status: ('A' for Active; 'I' for Inactive)
REMARK    1  A    between atoms: C10_13  and  C11_14 
ROOT
ATOM      1  C1  LG1 d5015      38.911  -0.988  58.867  0.00  0.00     0.018 C 
ATOM      2  C2  LG1 d5015      38.113  -1.453  60.029  0.00  0.00     0.193 C 
ATOM      3  C3  LG1 d5015      37.189  -0.440  60.581  0.00  0.00     0.049 A 
ATOM      4  C4  LG1 d5015      36.463  -0.713  61.742  0.00  0.00     0.037 A 
ATOM      5  C5  LG1 d5015      35.548   0.224  62.223  0.00  0.00     0.012 A 
ATOM      6  C6  LG1 d5015      35.350   1.426  61.542  0.00  0.00     0.022 A 
ATOM      7  C7  LG1 d5015      36.073   1.697  60.379  0.00  0.00     0.039 A 
ATOM      8  C8  LG1 d5015      37.004   0.773  59.906  0.00  0.00     0.083 A 
ATOM      9  O1  LG1 d5015      37.666   1.095  58.751  0.00  0.00    -0.346 OA
ATOM     10  C9  LG1 d5015      38.960   0.490  58.655  0.00  0.00     0.218 C 
ATOM     11 BR1  LG1 d5015      34.585  -0.126  63.812  0.00  0.00    -0.051 Br
ATOM     12  O2  LG1 d5015      38.199  -2.575  60.505  0.00  0.00    -0.287 OA
ATOM     13  C10 LG1 d5015      39.533  -1.887  58.094  0.00  0.00     0.025 C 
ENDROOT
BRANCH  13  14
ATOM     14  C11 LG1 d5015      40.329  -1.563  56.949  0.00  0.00    -0.029 A 
ATOM     15  C14 LG1 d5015      39.813  -1.499  55.674  0.00  0.00     0.061 A 
ATOM     16  S1  LG1 d5015      41.006  -1.087  54.518  0.00  0.00    -0.113 SA
ATOM     17  C13 LG1 d5015      42.219  -0.992  55.723  0.00  0.00     0.050 A 
ATOM     18  C12 LG1 d5015      41.723  -1.269  56.978  0.00  0.00     0.019 A 
ENDBRANCH  13  14
TORSDOF 1
ENDMDL
MODEL 4
REMARK VINA RESULT:    -4.978      4.215      5.615
REMARK INTER + INTRA:          -5.373
REMARK INTER:                  -5.205
REMARK INTRA:                  -0.169
REMARK UNBOUND:                -0.105
REMARK  1 active torsions:
REMARK  status: ('A' for Active; 'I' for Inactive)
REMARK    1  A    between atoms: C10_13  and  C11_14 
ROOT
ATOM      1  C1  LG1 d5015      38.857  -2.608  60.773  0.00  0.00     0.018 C 
ATOM      2  C2  LG1 d5015      38.853  -1.661  59.630  0.00  0.00     0.193 C 
ATOM      3  C3  LG1 d5015      37.883  -0.553  59.756  0.00  0.00     0.049 A 
ATOM      4  C4  LG1 d5015      37.701   0.342  58.699  0.00  0.00     0.037 A 
ATOM      5  C5  LG1 d5015      36.829   1.421  58.850  0.00  0.00     0.012 A 
ATOM      6  C6  LG1 d5015      36.148   1.613  60.052  0.00  0.00     0.022 A 
ATOM      7  C7  LG1 d5015      36.333   0.720  61.109  0.00  0.00     0.039 A 
ATOM      8  C8  LG1 d5015      37.187  -0.372  60.957  0.00  0.00     0.083 A 
ATOM      9  O1  LG1 d5015      37.336  -1.199  62.040  0.00  0.00    -0.346 OA
ATOM     10  C9  LG1 d5015      37.671  -2.543  61.681  0.00  0.00     0.218 C 
ATOM     11 BR1  LG1 d5015      36.554   2.619  57.412  0.00  0.00    -0.051 Br
ATOM     12  O2  LG1 d5015      39.582  -1.772  58.655  0.00  0.00    -0.287 OA
ATOM     13  C10 LG1 d5015      39.886  -3.449  60.926  0.00  0.00     0.025 C 
ENDROOT
BRANCH  13  14
ATOM     14  C11 LG1 d5015      40.004  -4.405  61.987  0.00  0.00    -0.029 A 
ATOM     15  C14 LG1 d5015      40.626  -4.122  63.182  0.00  0.00     0.061 A 
ATOM     16  S1  LG1 d5015      40.607  -5.461  64.249  0.00  0.00    -0.113 SA
ATOM     17  C13 LG1 d5015      39.763  -6.424  63.111  0.00  0.00     0.050 A 
ATOM     18  C12 LG1 d5015      39.503  -5.739  61.946  0.00  0.00     0.019 A 
ENDBRANCH  13  14
TORSDOF 1
ENDMDL
MODEL 5
REMARK VINA RESULT:    -4.894      1.484      2.430
REMARK INTER + INTRA:          -5.285
REMARK INTER:                  -5.180
REMARK INTRA:                  -0.105
REMARK UNBOUND:                -0.105
REMARK  1 active torsions:
REMARK  status: ('A' for Active; 'I' for Inactive)
REMARK    1  A    between atoms: C10_13  and  C11_14 
ROOT
ATOM      1  C1  LG1 d5015      37.286  -0.333  59.138  0.00  0.00     0.018 C 
ATOM      2  C2  LG1 d5015      37.709  -0.808  57.797  0.00  0.00     0.193 C 
ATOM      3  C3  LG1 d5015      38.500   0.171  57.022  0.00  0.00     0.049 A 
ATOM      4  C4  LG1 d5015      38.863  -0.110  55.703  0.00  0.00     0.037 A 
ATOM      5  C5  LG1 d5015      39.661   0.793  54.998  0.00  0.00     0.012 A 
ATOM      6  C6  LG1 d5015      40.103   1.967  55.610  0.00  0.00     0.022 A 
ATOM      7  C7  LG1 d5015      39.742   2.245  56.929  0.00  0.00     0.039 A 
ATOM      8  C8  LG1 d5015      38.927   1.357  57.631  0.00  0.00     0.083 A 
ATOM      9  O1  LG1 d5015      38.626   1.683  58.927  0.00  0.00    -0.346 OA
ATOM     10  C9  LG1 d5015      37.377   1.141  59.369  0.00  0.00     0.218 C 
ATOM     11 BR1  LG1 d5015      40.131   0.434  53.202  0.00  0.00    -0.051 Br
ATOM     12  O2  LG1 d5015      37.436  -1.913  57.351  0.00  0.00    -0.287 OA
ATOM     13  C10 LG1 d5015      36.853  -1.219  60.043  0.00  0.00     0.025 C 
ENDROOT
BRANCH  13  14
ATOM     14  C11 LG1 d5015      36.420  -0.883  61.366  0.00  0.00    -0.029 A 
ATOM     15  C14 LG1 d5015      35.172  -0.369  61.637  0.00  0.00     0.061 A 
ATOM     16  S1  LG1 d5015      34.948  -0.071  63.307  0.00  0.00    -0.113 SA
ATOM     17  C13 LG1 d5015      36.524  -0.630  63.674  0.00  0.00     0.050 A 
ATOM     18  C12 LG1 d5015      37.204  -1.035  62.547  0.00  0.00     0.019 A 
ENDBRANCH  13  14
TORSDOF 1
ENDMDL
