REMARK INTER + INTRA:          -5.448
REMARK INTER:                  -5.280
REMARK INTRA:                  -0.169
REMARK UNBOUND:                -0.167
REMARK  1 active torsions:
REMARK  status: ('A' for Active; 'I' for Inactive)
REMARK    1  A    between atoms: C10_13  and  C11_14 
ROOT
ATOM      1  C1  LG1 d5015      38.891  -1.009  58.855  0.00  0.00     0.018 C 
ATOM      2  C2  LG1 d5015      38.096  -1.462  60.024  0.00  0.00     0.193 C 
ATOM      3  C3  LG1 d5015      37.180  -0.440  60.574  0.00  0.00     0.049 A 
ATOM      4  C4  LG1 d5015      36.459  -0.702  61.740  0.00  0.00     0.037 A 
ATOM      5  C5  LG1 d5015      35.551   0.244  62.219  0.00  0.00     0.012 A 
ATOM      6  C6  LG1 d5015      35.356   1.442  61.532  0.00  0.00     0.022 A 
ATOM      7  C7  LG1 d5015      36.075   1.702  60.364  0.00  0.00     0.039 A 
ATOM      8  C8  LG1 d5015      36.999   0.769  59.893  0.00  0.00     0.083 A 
ATOM      9  O1  LG1 d5015      37.657   1.080  58.732  0.00  0.00    -0.346 OA
ATOM     10  C9  LG1 d5015      38.947   0.468  58.634  0.00  0.00     0.218 C 
ATOM     11 BR1  LG1 d5015      34.594  -0.092  63.816  0.00  0.00    -0.051 Br
ATOM     12  O2  LG1 d5015      38.178  -2.582  60.507  0.00  0.00    -0.287 OA
ATOM     13  C10 LG1 d5015      39.504  -1.917  58.085  0.00  0.00     0.025 C 
ENDROOT
BRANCH  13  14
ATOM     14  C11 LG1 d5015      40.296  -1.604  56.934  0.00  0.00    -0.029 A 
ATOM     15  C14 LG1 d5015      39.771  -1.526  55.664  0.00  0.00     0.061 A 
ATOM     16  S1  LG1 d5015      40.963  -1.134  54.499  0.00  0.00    -0.113 SA
ATOM     17  C13 LG1 d5015      42.187  -1.067  55.694  0.00  0.00     0.050 A 
ATOM     18  C12 LG1 d5015      41.696  -1.337  56.952  0.00  0.00     0.019 A 
ENDBRANCH  13  14
TORSDOF 1
ENDMDL
