REMARK INTER + INTRA:          -5.655
REMARK INTER:                  -5.490
REMARK INTRA:                  -0.165
REMARK UNBOUND:                -0.169
REMARK  1 active torsions:
REMARK  status: ('A' for Active; 'I' for Inactive)
REMARK    1  A    between atoms: C10_13  and  C11_14 
ROOT
ATOM      1  C1  LG1 d5015      37.731   1.126  57.943  0.00  0.00     0.018 C 
ATOM      2  C2  LG1 d5015      36.858   1.524  59.076  0.00  0.00     0.193 C 
ATOM      3  C3  LG1 d5015      36.790   0.534  60.172  0.00  0.00     0.049 A 
ATOM      4  C4  LG1 d5015      35.918   0.736  61.245  0.00  0.00     0.037 A 
ATOM      5  C5  LG1 d5015      35.904  -0.172  62.304  0.00  0.00     0.012 A 
ATOM      6  C6  LG1 d5015      36.763  -1.271  62.300  0.00  0.00     0.022 A 
ATOM      7  C7  LG1 d5015      37.637  -1.470  61.230  0.00  0.00     0.039 A 
ATOM      8  C8  LG1 d5015      37.640  -0.578  60.158  0.00  0.00     0.083 A 
ATOM      9  O1  LG1 d5015      38.534  -0.823  59.149  0.00  0.00    -0.346 OA
ATOM     10  C9  LG1 d5015      38.106  -0.319  57.880  0.00  0.00     0.218 C 
ATOM     11 BR1  LG1 d5015      34.704   0.078  63.745  0.00  0.00    -0.051 Br
ATOM     12  O2  LG1 d5015      36.238   2.576  59.118  0.00  0.00    -0.287 OA
ATOM     13  C10 LG1 d5015      38.121   2.052  57.059  0.00  0.00     0.025 C 
ENDROOT
BRANCH  13  14
ATOM     14  C11 LG1 d5015      38.961   1.792  55.928  0.00  0.00    -0.029 A 
ATOM     15  C14 LG1 d5015      38.466   1.420  54.700  0.00  0.00     0.061 A 
ATOM     16  S1  LG1 d5015      39.712   1.182  53.550  0.00  0.00    -0.113 SA
ATOM     17  C13 LG1 d5015      40.920   1.578  54.695  0.00  0.00     0.050 A 
ATOM     18  C12 LG1 d5015      40.383   1.886  55.925  0.00  0.00     0.019 A 
ENDBRANCH  13  14
TORSDOF 1
ENDMDL
