REMARK INTER + INTRA:          -5.303
REMARK INTER:                  -5.203
REMARK INTRA:                  -0.100
REMARK UNBOUND:                -0.208
REMARK  1 active torsions:
REMARK  status: ('A' for Active; 'I' for Inactive)
REMARK    1  A    between atoms: C1_1  and  N1_10 
ROOT
ATOM      1  C1  LG1 d5015      37.759   0.546  58.777  0.00  0.00     0.056 A 
ATOM      2  C2  LG1 d5015      36.795   1.519  59.042  0.00  0.00    -0.033 A 
ATOM      3  C3  LG1 d5015      36.048   1.457  60.219  0.00  0.00     0.028 A 
ATOM      4  C4  LG1 d5015      36.266   0.424  61.130  0.00  0.00     0.012 A 
ATOM      5  C5  LG1 d5015      37.230  -0.550  60.864  0.00  0.00     0.028 A 
ATOM      6  C6  LG1 d5015      37.976  -0.488  59.687  0.00  0.00    -0.033 A 
ATOM      7  C7  LG1 d5015      39.001  -1.544  59.430  0.00  0.00     0.050 C 
ATOM      8 BR1  LG1 d5015      35.253   0.339  62.724  0.00  0.00    -0.051 Br
ATOM      9  C8  LG1 d5015      36.540   2.639  58.086  0.00  0.00     0.050 C 
ENDROOT
BRANCH   1  10
ATOM     10  N1  LG1 d5015      38.529   0.610  57.566  0.00  0.00    -0.265 N 
ATOM     11  C11 LG1 d5015      39.632   1.444  57.384  0.00  0.00     0.148 C 
ATOM     12  S2  LG1 d5015      40.488   2.368  58.490  0.00  0.00    -0.052 SA
ATOM     13  S1  LG1 d5015      40.167   1.347  55.710  0.00  0.00    -0.090 SA
ATOM     14  C10 LG1 d5015      39.103  -0.042  55.321  0.00  0.00     0.185 C 
ATOM     15  C9  LG1 d5015      38.159  -0.193  56.479  0.00  0.00     0.239 C 
ATOM     16  O1  LG1 d5015      37.187  -0.941  56.399  0.00  0.00    -0.272 OA
ENDBRANCH   1  10
TORSDOF 1
ENDMDL
