REMARK INTER + INTRA:          -5.373
REMARK INTER:                  -5.205
REMARK INTRA:                  -0.169
REMARK UNBOUND:                -0.105
REMARK  1 active torsions:
REMARK  status: ('A' for Active; 'I' for Inactive)
REMARK    1  A    between atoms: C10_13  and  C11_14 
ROOT
ATOM      1  C1  LG1 d5015      38.857  -2.608  60.773  0.00  0.00     0.018 C 
ATOM      2  C2  LG1 d5015      38.853  -1.661  59.630  0.00  0.00     0.193 C 
ATOM      3  C3  LG1 d5015      37.883  -0.553  59.756  0.00  0.00     0.049 A 
ATOM      4  C4  LG1 d5015      37.701   0.342  58.699  0.00  0.00     0.037 A 
ATOM      5  C5  LG1 d5015      36.829   1.421  58.850  0.00  0.00     0.012 A 
ATOM      6  C6  LG1 d5015      36.148   1.613  60.052  0.00  0.00     0.022 A 
ATOM      7  C7  LG1 d5015      36.333   0.720  61.109  0.00  0.00     0.039 A 
ATOM      8  C8  LG1 d5015      37.187  -0.372  60.957  0.00  0.00     0.083 A 
ATOM      9  O1  LG1 d5015      37.336  -1.199  62.040  0.00  0.00    -0.346 OA
ATOM     10  C9  LG1 d5015      37.671  -2.543  61.681  0.00  0.00     0.218 C 
ATOM     11 BR1  LG1 d5015      36.554   2.619  57.412  0.00  0.00    -0.051 Br
ATOM     12  O2  LG1 d5015      39.582  -1.772  58.655  0.00  0.00    -0.287 OA
ATOM     13  C10 LG1 d5015      39.886  -3.449  60.926  0.00  0.00     0.025 C 
ENDROOT
BRANCH  13  14
ATOM     14  C11 LG1 d5015      40.004  -4.405  61.987  0.00  0.00    -0.029 A 
ATOM     15  C14 LG1 d5015      40.626  -4.122  63.182  0.00  0.00     0.061 A 
ATOM     16  S1  LG1 d5015      40.607  -5.461  64.249  0.00  0.00    -0.113 SA
ATOM     17  C13 LG1 d5015      39.763  -6.424  63.111  0.00  0.00     0.050 A 
ATOM     18  C12 LG1 d5015      39.503  -5.739  61.946  0.00  0.00     0.019 A 
ENDBRANCH  13  14
TORSDOF 1
ENDMDL
