REMARK INTER + INTRA:          -5.625
REMARK INTER:                  -5.458
REMARK INTRA:                  -0.168
REMARK UNBOUND:                -0.105
REMARK  1 active torsions:
REMARK  status: ('A' for Active; 'I' for Inactive)
REMARK    1  A    between atoms: C10_13  and  C11_14 
ROOT
ATOM      1  C1  LG1 d5015      37.743   1.092  57.963  0.00  0.00     0.018 C 
ATOM      2  C2  LG1 d5015      36.853   1.467  59.091  0.00  0.00     0.193 C 
ATOM      3  C3  LG1 d5015      36.795   0.471  60.182  0.00  0.00     0.049 A 
ATOM      4  C4  LG1 d5015      35.910   0.650  61.247  0.00  0.00     0.037 A 
ATOM      5  C5  LG1 d5015      35.906  -0.262  62.303  0.00  0.00     0.012 A 
ATOM      6  C6  LG1 d5015      36.787  -1.344  62.301  0.00  0.00     0.022 A 
ATOM      7  C7  LG1 d5015      37.674  -1.520  61.238  0.00  0.00     0.039 A 
ATOM      8  C8  LG1 d5015      37.668  -0.624  60.170  0.00  0.00     0.083 A 
ATOM      9  O1  LG1 d5015      38.576  -0.846  59.168  0.00  0.00    -0.346 OA
ATOM     10  C9  LG1 d5015      38.148  -0.345  57.897  0.00  0.00     0.218 C 
ATOM     11 BR1  LG1 d5015      34.688  -0.043  63.733  0.00  0.00    -0.051 Br
ATOM     12  O2  LG1 d5015      36.211   2.506  59.132  0.00  0.00    -0.287 OA
ATOM     13  C10 LG1 d5015      38.123   2.030  57.087  0.00  0.00     0.025 C 
ENDROOT
BRANCH  13  14
ATOM     14  C11 LG1 d5015      38.977   1.792  55.962  0.00  0.00    -0.029 A 
ATOM     15  C14 LG1 d5015      38.499   1.440  54.720  0.00  0.00     0.061 A 
ATOM     16  S1  LG1 d5015      39.759   1.226  53.583  0.00  0.00    -0.113 SA
ATOM     17  C13 LG1 d5015      40.952   1.605  54.751  0.00  0.00     0.050 A 
ATOM     18  C12 LG1 d5015      40.400   1.889  55.980  0.00  0.00     0.019 A 
ENDBRANCH  13  14
TORSDOF 1
ENDMDL
