REMARK INTER + INTRA:          -5.429
REMARK INTER:                  -5.262
REMARK INTRA:                  -0.167
REMARK UNBOUND:                -0.162
REMARK  1 active torsions:
REMARK  status: ('A' for Active; 'I' for Inactive)
REMARK    1  A    between atoms: C10_13  and  C11_14 
ROOT
ATOM      1  C1  LG1 d5015      38.901  -0.999  58.828  0.00  0.00     0.018 C 
ATOM      2  C2  LG1 d5015      38.111  -1.459  59.997  0.00  0.00     0.193 C 
ATOM      3  C3  LG1 d5015      37.191  -0.443  60.553  0.00  0.00     0.049 A 
ATOM      4  C4  LG1 d5015      36.474  -0.713  61.720  0.00  0.00     0.037 A 
ATOM      5  C5  LG1 d5015      35.563   0.228  62.204  0.00  0.00     0.012 A 
ATOM      6  C6  LG1 d5015      35.362   1.428  61.521  0.00  0.00     0.022 A 
ATOM      7  C7  LG1 d5015      36.076   1.694  60.352  0.00  0.00     0.039 A 
ATOM      8  C8  LG1 d5015      37.004   0.768  59.876  0.00  0.00     0.083 A 
ATOM      9  O1  LG1 d5015      37.658   1.085  58.715  0.00  0.00    -0.346 OA
ATOM     10  C9  LG1 d5015      38.950   0.479  58.611  0.00  0.00     0.218 C 
ATOM     11 BR1  LG1 d5015      34.611  -0.117  63.802  0.00  0.00    -0.051 Br
ATOM     12  O2  LG1 d5015      38.199  -2.580  60.476  0.00  0.00    -0.287 OA
ATOM     13  C10 LG1 d5015      39.516  -1.901  58.054  0.00  0.00     0.025 C 
ENDROOT
BRANCH  13  14
ATOM     14  C11 LG1 d5015      40.304  -1.581  56.902  0.00  0.00    -0.029 A 
ATOM     15  C14 LG1 d5015      39.770  -1.472  55.638  0.00  0.00     0.061 A 
ATOM     16  S1  LG1 d5015      40.959  -1.078  54.471  0.00  0.00    -0.113 SA
ATOM     17  C13 LG1 d5015      42.193  -1.052  55.656  0.00  0.00     0.050 A 
ATOM     18  C12 LG1 d5015      41.709  -1.337  56.912  0.00  0.00     0.019 A 
ENDBRANCH  13  14
TORSDOF 1
ENDMDL
