REMARK INTER + INTRA:          -4.928
REMARK INTER:                  -4.778
REMARK INTRA:                  -0.151
REMARK UNBOUND:                -0.208
REMARK  1 active torsions:
REMARK  status: ('A' for Active; 'I' for Inactive)
REMARK    1  A    between atoms: C1_1  and  N1_10 
ROOT
ATOM      1  C1  LG1 d5015      37.997   0.819  58.722  0.00  0.00     0.056 A 
ATOM      2  C2  LG1 d5015      38.196  -0.282  59.555  0.00  0.00    -0.033 A 
ATOM      3  C3  LG1 d5015      37.305  -0.537  60.598  0.00  0.00     0.028 A 
ATOM      4  C4  LG1 d5015      36.217   0.308  60.808  0.00  0.00     0.012 A 
ATOM      5  C5  LG1 d5015      36.018   1.411  59.975  0.00  0.00     0.028 A 
ATOM      6  C6  LG1 d5015      36.909   1.665  58.934  0.00  0.00    -0.033 A 
ATOM      7  C7  LG1 d5015      36.670   2.853  58.059  0.00  0.00     0.050 C 
ATOM      8 BR1  LG1 d5015      35.011  -0.037  62.223  0.00  0.00    -0.051 Br
ATOM      9  C8  LG1 d5015      39.353  -1.207  59.353  0.00  0.00     0.050 C 
ENDROOT
BRANCH   1  10
ATOM     10  N1  LG1 d5015      38.913   1.081  57.648  0.00  0.00    -0.265 N 
ATOM     11  C11 LG1 d5015      38.859   0.454  56.403  0.00  0.00     0.148 C 
ATOM     12  S2  LG1 d5015      37.677  -0.527  55.734  0.00  0.00    -0.052 SA
ATOM     13  S1  LG1 d5015      40.261   0.924  55.450  0.00  0.00    -0.090 SA
ATOM     14  C10 LG1 d5015      40.769   2.201  56.601  0.00  0.00     0.185 C 
ATOM     15  C9  LG1 d5015      39.946   2.009  57.842  0.00  0.00     0.239 C 
ATOM     16  O1  LG1 d5015      40.219   2.617  58.874  0.00  0.00    -0.272 OA
ENDBRANCH   1  10
TORSDOF 1
ENDMDL
