REMARK INTER + INTRA:          -5.285
REMARK INTER:                  -5.180
REMARK INTRA:                  -0.105
REMARK UNBOUND:                -0.105
REMARK  1 active torsions:
REMARK  status: ('A' for Active; 'I' for Inactive)
REMARK    1  A    between atoms: C10_13  and  C11_14 
ROOT
ATOM      1  C1  LG1 d5015      37.286  -0.333  59.138  0.00  0.00     0.018 C 
ATOM      2  C2  LG1 d5015      37.709  -0.808  57.797  0.00  0.00     0.193 C 
ATOM      3  C3  LG1 d5015      38.500   0.171  57.022  0.00  0.00     0.049 A 
ATOM      4  C4  LG1 d5015      38.863  -0.110  55.703  0.00  0.00     0.037 A 
ATOM      5  C5  LG1 d5015      39.661   0.793  54.998  0.00  0.00     0.012 A 
ATOM      6  C6  LG1 d5015      40.103   1.967  55.610  0.00  0.00     0.022 A 
ATOM      7  C7  LG1 d5015      39.742   2.245  56.929  0.00  0.00     0.039 A 
ATOM      8  C8  LG1 d5015      38.927   1.357  57.631  0.00  0.00     0.083 A 
ATOM      9  O1  LG1 d5015      38.626   1.683  58.927  0.00  0.00    -0.346 OA
ATOM     10  C9  LG1 d5015      37.377   1.141  59.369  0.00  0.00     0.218 C 
ATOM     11 BR1  LG1 d5015      40.131   0.434  53.202  0.00  0.00    -0.051 Br
ATOM     12  O2  LG1 d5015      37.436  -1.913  57.351  0.00  0.00    -0.287 OA
ATOM     13  C10 LG1 d5015      36.853  -1.219  60.043  0.00  0.00     0.025 C 
ENDROOT
BRANCH  13  14
ATOM     14  C11 LG1 d5015      36.420  -0.883  61.366  0.00  0.00    -0.029 A 
ATOM     15  C14 LG1 d5015      35.172  -0.369  61.637  0.00  0.00     0.061 A 
ATOM     16  S1  LG1 d5015      34.948  -0.071  63.307  0.00  0.00    -0.113 SA
ATOM     17  C13 LG1 d5015      36.524  -0.630  63.674  0.00  0.00     0.050 A 
ATOM     18  C12 LG1 d5015      37.204  -1.035  62.547  0.00  0.00     0.019 A 
ENDBRANCH  13  14
TORSDOF 1
ENDMDL
