REMARK INTER + INTRA:          -4.710
REMARK INTER:                  -4.502
REMARK INTRA:                  -0.208
REMARK UNBOUND:                -0.208
REMARK  1 active torsions:
REMARK  status: ('A' for Active; 'I' for Inactive)
REMARK    1  A    between atoms: C1_1  and  N1_10 
ROOT
ATOM      1  C1  LG1 d5015      38.150  -1.812  60.124  0.00  0.00     0.056 A 
ATOM      2  C2  LG1 d5015      38.087  -2.284  61.435  0.00  0.00    -0.033 A 
ATOM      3  C3  LG1 d5015      37.305  -1.617  62.379  0.00  0.00     0.028 A 
ATOM      4  C4  LG1 d5015      36.586  -0.480  62.012  0.00  0.00     0.012 A 
ATOM      5  C5  LG1 d5015      36.650  -0.008  60.700  0.00  0.00     0.028 A 
ATOM      6  C6  LG1 d5015      37.432  -0.674  59.758  0.00  0.00    -0.033 A 
ATOM      7  C7  LG1 d5015      37.480  -0.144  58.361  0.00  0.00     0.050 C 
ATOM      8 BR1  LG1 d5015      35.529   0.423  63.292  0.00  0.00    -0.051 Br
ATOM      9  C8  LG1 d5015      38.844  -3.501  61.858  0.00  0.00     0.050 C 
ENDROOT
BRANCH   1  10
ATOM     10  N1  LG1 d5015      38.953  -2.499  59.152  0.00  0.00    -0.265 N 
ATOM     11  C11 LG1 d5015      38.498  -3.561  58.370  0.00  0.00     0.148 C 
ATOM     12  S2  LG1 d5015      36.949  -4.160  58.153  0.00  0.00    -0.052 SA
ATOM     13  S1  LG1 d5015      39.842  -4.226  57.450  0.00  0.00    -0.090 SA
ATOM     14  C10 LG1 d5015      40.958  -2.890  57.878  0.00  0.00     0.185 C 
ATOM     15  C9  LG1 d5015      40.287  -2.107  58.969  0.00  0.00     0.239 C 
ATOM     16  O1  LG1 d5015      40.906  -1.251  59.596  0.00  0.00    -0.272 OA
ENDBRANCH   1  10
TORSDOF 1
ENDMDL
