MODEL 1
REMARK VINA RESULT:    -5.587      0.000      0.000
REMARK INTER + INTRA:          -6.033
REMARK INTER:                  -5.883
REMARK INTRA:                  -0.150
REMARK UNBOUND:                -0.119
REMARK  1 active torsions:
REMARK  status: ('A' for Active; 'I' for Inactive)
REMARK    1  A    between atoms: C10_13  and  C11_14 
ROOT
ATOM      1  C1  LG1 d5015      36.742   1.138  59.432  0.00  0.00     0.018 C 
ATOM      2  C2  LG1 d5015      37.034   1.903  58.194  0.00  0.00     0.193 C 
ATOM      3  C3  LG1 d5015      37.604   1.095  57.095  0.00  0.00     0.049 A 
ATOM      4  C4  LG1 d5015      38.027   1.714  55.917  0.00  0.00     0.037 A 
ATOM      5  C5  LG1 d5015      38.507   0.937  54.862  0.00  0.00     0.012 A 
ATOM      6  C6  LG1 d5015      38.556  -0.453  54.977  0.00  0.00     0.022 A 
ATOM      7  C7  LG1 d5015      38.129  -1.071  56.153  0.00  0.00     0.039 A 
ATOM      8  C8  LG1 d5015      37.669  -0.298  57.219  0.00  0.00     0.083 A 
ATOM      9  O1  LG1 d5015      37.250  -0.970  58.337  0.00  0.00    -0.346 OA
ATOM     10  C9  LG1 d5015      37.387  -0.205  59.539  0.00  0.00     0.218 C 
ATOM     11 BR1  LG1 d5015      39.111   1.771  53.275  0.00  0.00    -0.051 Br
ATOM     12  O2  LG1 d5015      36.830   3.102  58.073  0.00  0.00    -0.287 OA
ATOM     13  C10 LG1 d5015      35.945   1.676  60.363  0.00  0.00     0.025 C 
ENDROOT
BRANCH  13  14
ATOM     14  C11 LG1 d5015      35.590   1.037  61.595  0.00  0.00    -0.029 A 
ATOM     15  C14 LG1 d5015      34.550   0.141  61.699  0.00  0.00     0.061 A 
ATOM     16  S1  LG1 d5015      34.372  -0.454  63.295  0.00  0.00    -0.113 SA
ATOM     17  C13 LG1 d5015      35.688   0.489  63.852  0.00  0.00     0.050 A 
ATOM     18  C12 LG1 d5015      36.250   1.239  62.842  0.00  0.00     0.019 A 
ENDBRANCH  13  14
TORSDOF 1
ENDMDL
MODEL 2
REMARK VINA RESULT:    -5.224      4.051      6.552
REMARK INTER + INTRA:          -5.649
REMARK INTER:                  -5.483
REMARK INTRA:                  -0.165
REMARK UNBOUND:                -0.119
REMARK  1 active torsions:
REMARK  status: ('A' for Active; 'I' for Inactive)
REMARK    1  A    between atoms: C10_13  and  C11_14 
ROOT
ATOM      1  C1  LG1 d5015      37.744   1.084  58.047  0.00  0.00     0.018 C 
ATOM      2  C2  LG1 d5015      36.839   1.469  59.159  0.00  0.00     0.193 C 
ATOM      3  C3  LG1 d5015      36.761   0.482  60.256  0.00  0.00     0.049 A 
ATOM      4  C4  LG1 d5015      35.862   0.672  61.307  0.00  0.00     0.037 A 
ATOM      5  C5  LG1 d5015      35.838  -0.234  62.368  0.00  0.00     0.012 A 
ATOM      6  C6  LG1 d5015      36.715  -1.319  62.387  0.00  0.00     0.022 A 
ATOM      7  C7  LG1 d5015      37.616  -1.506  61.338  0.00  0.00     0.039 A 
ATOM      8  C8  LG1 d5015      37.629  -0.617  60.263  0.00  0.00     0.083 A 
ATOM      9  O1  LG1 d5015      38.551  -0.850  59.277  0.00  0.00    -0.346 OA
ATOM     10  C9  LG1 d5015      38.143  -0.355  57.997  0.00  0.00     0.218 C 
ATOM     11 BR1  LG1 d5015      34.601   0.001  63.780  0.00  0.00    -0.051 Br
ATOM     12  O2  LG1 d5015      36.201   2.512  59.183  0.00  0.00    -0.287 OA
ATOM     13  C10 LG1 d5015      38.140   2.014  57.169  0.00  0.00     0.025 C 
ENDROOT
BRANCH  13  14
ATOM     14  C11 LG1 d5015      39.010   1.765  56.059  0.00  0.00    -0.029 A 
ATOM     15  C14 LG1 d5015      38.549   1.378  54.821  0.00  0.00     0.061 A 
ATOM     16  S1  LG1 d5015      39.825   1.160  53.701  0.00  0.00    -0.113 SA
ATOM     17  C13 LG1 d5015      40.999   1.581  54.872  0.00  0.00     0.050 A 
ATOM     18  C12 LG1 d5015      40.429   1.883  56.089  0.00  0.00     0.019 A 
ENDBRANCH  13  14
TORSDOF 1
ENDMDL
MODEL 3
REMARK VINA RESULT:    -5.033      4.245      5.573
REMARK INTER + INTRA:          -5.447
REMARK INTER:                  -5.278
REMARK INTRA:                  -0.169
REMARK UNBOUND:                -0.119
REMARK  1 active torsions:
REMARK  status: ('A' for Active; 'I' for Inactive)
REMARK    1  A    between atoms: C10_13  and  C11_14 
ROOT
ATOM      1  C1  LG1 d5015      38.826  -2.582  60.805  0.00  0.00     0.018 C 
ATOM      2  C2  LG1 d5015      38.787  -1.668  59.636  0.00  0.00     0.193 C 
ATOM      3  C3  LG1 d5015      37.828  -0.550  59.765  0.00  0.00     0.049 A 
ATOM      4  C4  LG1 d5015      37.613   0.316  58.691  0.00  0.00     0.037 A 
ATOM      5  C5  LG1 d5015      36.752   1.404  58.842  0.00  0.00     0.012 A 
ATOM      6  C6  LG1 d5015      36.116   1.634  60.062  0.00  0.00     0.022 A 
ATOM      7  C7  LG1 d5015      36.334   0.770  61.137  0.00  0.00     0.039 A 
ATOM      8  C8  LG1 d5015      37.177  -0.332  60.985  0.00  0.00     0.083 A 
ATOM      9  O1  LG1 d5015      37.360  -1.128  62.085  0.00  0.00    -0.346 OA
ATOM     10  C9  LG1 d5015      37.675  -2.484  61.752  0.00  0.00     0.218 C 
ATOM     11 BR1  LG1 d5015      36.432   2.562  57.381  0.00  0.00    -0.051 Br
ATOM     12  O2  LG1 d5015      39.479  -1.811  58.639  0.00  0.00    -0.287 OA
ATOM     13  C10 LG1 d5015      39.856  -3.425  60.945  0.00  0.00     0.025 C 
ENDROOT
BRANCH  13  14
ATOM     14  C11 LG1 d5015      40.007  -4.351  62.027  0.00  0.00    -0.029 A 
ATOM     15  C14 LG1 d5015      39.574  -5.656  61.960  0.00  0.00     0.061 A 
ATOM     16  S1  LG1 d5015      39.896  -6.515  63.405  0.00  0.00    -0.113 SA
ATOM     17  C13 LG1 d5015      40.615  -5.140  64.127  0.00  0.00     0.050 A 
ATOM     18  C12 LG1 d5015      40.611  -4.051  63.283  0.00  0.00     0.019 A 
ENDBRANCH  13  14
TORSDOF 1
ENDMDL
MODEL 4
REMARK VINA RESULT:    -5.004      4.265      6.976
REMARK INTER + INTRA:          -5.415
REMARK INTER:                  -5.247
REMARK INTRA:                  -0.168
REMARK UNBOUND:                -0.119
REMARK  1 active torsions:
REMARK  status: ('A' for Active; 'I' for Inactive)
REMARK    1  A    between atoms: C10_13  and  C11_14 
ROOT
ATOM      1  C1  LG1 d5015      38.927  -0.992  58.802  0.00  0.00     0.018 C 
ATOM      2  C2  LG1 d5015      38.137  -1.442  59.976  0.00  0.00     0.193 C 
ATOM      3  C3  LG1 d5015      37.223  -0.420  60.527  0.00  0.00     0.049 A 
ATOM      4  C4  LG1 d5015      36.507  -0.680  61.698  0.00  0.00     0.037 A 
ATOM      5  C5  LG1 d5015      35.601   0.267  62.178  0.00  0.00     0.012 A 
ATOM      6  C6  LG1 d5015      35.401   1.463  61.488  0.00  0.00     0.022 A 
ATOM      7  C7  LG1 d5015      36.115   1.720  60.316  0.00  0.00     0.039 A 
ATOM      8  C8  LG1 d5015      37.038   0.787  59.843  0.00  0.00     0.083 A 
ATOM      9  O1  LG1 d5015      37.690   1.096  58.679  0.00  0.00    -0.346 OA
ATOM     10  C9  LG1 d5015      38.981   0.484  58.577  0.00  0.00     0.218 C 
ATOM     11 BR1  LG1 d5015      34.651  -0.065  63.779  0.00  0.00    -0.051 Br
ATOM     12  O2  LG1 d5015      38.222  -2.561  60.462  0.00  0.00    -0.287 OA
ATOM     13  C10 LG1 d5015      39.537  -1.901  58.032  0.00  0.00     0.025 C 
ENDROOT
BRANCH  13  14
ATOM     14  C11 LG1 d5015      40.324  -1.591  56.877  0.00  0.00    -0.029 A 
ATOM     15  C14 LG1 d5015      39.794  -1.520  55.609  0.00  0.00     0.061 A 
ATOM     16  S1  LG1 d5015      40.979  -1.128  54.438  0.00  0.00    -0.113 SA
ATOM     17  C13 LG1 d5015      42.208  -1.052  55.626  0.00  0.00     0.050 A 
ATOM     18  C12 LG1 d5015      41.723  -1.319  56.888  0.00  0.00     0.019 A 
ENDBRANCH  13  14
TORSDOF 1
ENDMDL
MODEL 5
REMARK VINA RESULT:    -4.550      2.294      3.231
REMARK INTER + INTRA:          -4.935
REMARK INTER:                  -4.816
REMARK INTRA:                  -0.119
REMARK UNBOUND:                -0.119
REMARK  1 active torsions:
REMARK  status: ('A' for Active; 'I' for Inactive)
REMARK    1  A    between atoms: C10_13  and  C11_14 
ROOT
ATOM      1  C1  LG1 d5015      37.995  -0.518  59.863  0.00  0.00     0.018 C 
ATOM      2  C2  LG1 d5015      39.177  -0.996  59.104  0.00  0.00     0.193 C 
ATOM      3  C3  LG1 d5015      39.746  -0.005  58.167  0.00  0.00     0.049 A 
ATOM      4  C4  LG1 d5015      40.789  -0.367  57.312  0.00  0.00     0.037 A 
ATOM      5  C5  LG1 d5015      41.360   0.592  56.474  0.00  0.00     0.012 A 
ATOM      6  C6  LG1 d5015      40.900   1.909  56.496  0.00  0.00     0.022 A 
ATOM      7  C7  LG1 d5015      39.860   2.271  57.353  0.00  0.00     0.039 A 
ATOM      8  C8  LG1 d5015      39.270   1.312  58.177  0.00  0.00     0.083 A 
ATOM      9  O1  LG1 d5015      38.266   1.739  59.005  0.00  0.00    -0.346 OA
ATOM     10  C9  LG1 d5015      37.328   0.709  59.331  0.00  0.00     0.218 C 
ATOM     11 BR1  LG1 d5015      42.753   0.102  55.292  0.00  0.00    -0.051 Br
ATOM     12  O2  LG1 d5015      39.655  -2.115  59.227  0.00  0.00    -0.287 OA
ATOM     13  C10 LG1 d5015      37.596  -1.190  60.950  0.00  0.00     0.025 C 
ENDROOT
BRANCH  13  14
ATOM     14  C11 LG1 d5015      36.474  -0.827  61.763  0.00  0.00    -0.029 A 
ATOM     15  C14 LG1 d5015      36.606  -0.197  62.980  0.00  0.00     0.061 A 
ATOM     16  S1  LG1 d5015      35.089   0.109  63.712  0.00  0.00    -0.113 SA
ATOM     17  C13 LG1 d5015      34.250  -0.603  62.402  0.00  0.00     0.050 A 
ATOM     18  C12 LG1 d5015      35.109  -1.062  61.427  0.00  0.00     0.019 A 
ENDBRANCH  13  14
TORSDOF 1
ENDMDL
