MODEL 1
REMARK VINA RESULT:    -4.805      0.000      0.000
REMARK INTER + INTRA:          -5.294
REMARK INTER:                  -5.225
REMARK INTRA:                  -0.069
REMARK UNBOUND:                -0.208
REMARK  1 active torsions:
REMARK  status: ('A' for Active; 'I' for Inactive)
REMARK    1  A    between atoms: C1_1  and  N1_10 
ROOT
ATOM      1  C1  LG1 d5015      37.739   0.574  58.800  0.00  0.00     0.056 A 
ATOM      2  C2  LG1 d5015      37.987  -0.468  59.693  0.00  0.00    -0.033 A 
ATOM      3  C3  LG1 d5015      37.246  -0.568  60.870  0.00  0.00     0.028 A 
ATOM      4  C4  LG1 d5015      36.256   0.372  61.155  0.00  0.00     0.012 A 
ATOM      5  C5  LG1 d5015      36.008   1.416  60.261  0.00  0.00     0.028 A 
ATOM      6  C6  LG1 d5015      36.750   1.516  59.085  0.00  0.00    -0.033 A 
ATOM      7  C7  LG1 d5015      36.461   2.644  58.148  0.00  0.00     0.050 C 
ATOM      8 BR1  LG1 d5015      35.253   0.236  62.751  0.00  0.00    -0.051 Br
ATOM      9  C8  LG1 d5015      39.040  -1.492  59.415  0.00  0.00     0.050 C 
ENDROOT
BRANCH   1  10
ATOM     10  N1  LG1 d5015      38.500   0.678  57.587  0.00  0.00    -0.265 N 
ATOM     11  C11 LG1 d5015      39.566   1.560  57.406  0.00  0.00     0.148 C 
ATOM     12  S2  LG1 d5015      40.384   2.513  58.514  0.00  0.00    -0.052 SA
ATOM     13  S1  LG1 d5015      40.099   1.494  55.729  0.00  0.00    -0.090 SA
ATOM     14  C10 LG1 d5015      39.095   0.063  55.337  0.00  0.00     0.185 C 
ATOM     15  C9  LG1 d5015      38.162  -0.135  56.496  0.00  0.00     0.239 C 
ATOM     16  O1  LG1 d5015      37.223  -0.924  56.416  0.00  0.00    -0.272 OA
ENDBRANCH   1  10
TORSDOF 1
ENDMDL
MODEL 2
REMARK VINA RESULT:    -4.784      0.079      2.152
REMARK INTER + INTRA:          -5.271
REMARK INTER:                  -5.163
REMARK INTRA:                  -0.108
REMARK UNBOUND:                -0.208
REMARK  1 active torsions:
REMARK  status: ('A' for Active; 'I' for Inactive)
REMARK    1  A    between atoms: C1_1  and  N1_10 
ROOT
ATOM      1  C1  LG1 d5015      37.719   0.557  58.831  0.00  0.00     0.056 A 
ATOM      2  C2  LG1 d5015      36.710   1.471  59.135  0.00  0.00    -0.033 A 
ATOM      3  C3  LG1 d5015      35.995   1.348  60.327  0.00  0.00     0.028 A 
ATOM      4  C4  LG1 d5015      36.288   0.312  61.213  0.00  0.00     0.012 A 
ATOM      5  C5  LG1 d5015      37.297  -0.603  60.907  0.00  0.00     0.028 A 
ATOM      6  C6  LG1 d5015      38.011  -0.480  59.717  0.00  0.00    -0.033 A 
ATOM      7  C7  LG1 d5015      39.086  -1.474  59.417  0.00  0.00     0.050 C 
ATOM      8 BR1  LG1 d5015      35.318   0.145  62.827  0.00  0.00    -0.051 Br
ATOM      9  C8  LG1 d5015      36.374   2.592  58.206  0.00  0.00     0.050 C 
ENDROOT
BRANCH   1  10
ATOM     10  N1  LG1 d5015      38.456   0.684  57.605  0.00  0.00    -0.265 N 
ATOM     11  C11 LG1 d5015      39.512   1.575  57.416  0.00  0.00     0.148 C 
ATOM     12  S2  LG1 d5015      40.346   2.517  58.522  0.00  0.00    -0.052 SA
ATOM     13  S1  LG1 d5015      40.012   1.539  55.729  0.00  0.00    -0.090 SA
ATOM     14  C10 LG1 d5015      39.010   0.106  55.335  0.00  0.00     0.185 C 
ATOM     15  C9  LG1 d5015      38.101  -0.115  56.509  0.00  0.00     0.239 C 
ATOM     16  O1  LG1 d5015      37.166  -0.908  56.435  0.00  0.00    -0.272 OA
ENDBRANCH   1  10
TORSDOF 1
ENDMDL
MODEL 3
REMARK VINA RESULT:    -4.460      1.723      2.218
REMARK INTER + INTRA:          -4.928
REMARK INTER:                  -4.735
REMARK INTRA:                  -0.193
REMARK UNBOUND:                -0.208
REMARK  1 active torsions:
REMARK  status: ('A' for Active; 'I' for Inactive)
REMARK    1  A    between atoms: C1_1  and  N1_10 
ROOT
ATOM      1  C1  LG1 d5015      38.140   0.837  58.609  0.00  0.00     0.056 A 
ATOM      2  C2  LG1 d5015      38.443  -0.292  59.369  0.00  0.00    -0.033 A 
ATOM      3  C3  LG1 d5015      37.610  -0.664  60.425  0.00  0.00     0.028 A 
ATOM      4  C4  LG1 d5015      36.476   0.092  60.720  0.00  0.00     0.012 A 
ATOM      5  C5  LG1 d5015      36.174   1.223  59.958  0.00  0.00     0.028 A 
ATOM      6  C6  LG1 d5015      37.006   1.594  58.904  0.00  0.00    -0.033 A 
ATOM      7  C7  LG1 d5015      36.657   2.809  58.107  0.00  0.00     0.050 C 
ATOM      8 BR1  LG1 d5015      35.349  -0.412  62.151  0.00  0.00    -0.051 Br
ATOM      9  C8  LG1 d5015      39.650  -1.122  59.077  0.00  0.00     0.050 C 
ENDROOT
BRANCH   1  10
ATOM     10  N1  LG1 d5015      38.996   1.220  57.521  0.00  0.00    -0.265 N 
ATOM     11  C11 LG1 d5015      38.899   0.702  56.229  0.00  0.00     0.148 C 
ATOM     12  S2  LG1 d5015      37.713  -0.254  55.532  0.00  0.00    -0.052 SA
ATOM     13  S1  LG1 d5015      40.242   1.297  55.259  0.00  0.00    -0.090 SA
ATOM     14  C10 LG1 d5015      40.769   2.484  56.494  0.00  0.00     0.185 C 
ATOM     15  C9  LG1 d5015      40.011   2.160  57.749  0.00  0.00     0.239 C 
ATOM     16  O1  LG1 d5015      40.316   2.685  58.817  0.00  0.00    -0.272 OA
ENDBRANCH   1  10
TORSDOF 1
ENDMDL
MODEL 4
REMARK VINA RESULT:    -4.418      6.311      7.485
REMARK INTER + INTRA:          -4.884
REMARK INTER:                  -4.677
REMARK INTRA:                  -0.208
REMARK UNBOUND:                -0.208
REMARK  1 active torsions:
REMARK  status: ('A' for Active; 'I' for Inactive)
REMARK    1  A    between atoms: C1_1  and  N1_10 
ROOT
ATOM      1  C1  LG1 d5015      39.899  -3.465  63.140  0.00  0.00     0.056 A 
ATOM      2  C2  LG1 d5015      39.522  -2.736  64.268  0.00  0.00    -0.033 A 
ATOM      3  C3  LG1 d5015      38.404  -1.903  64.217  0.00  0.00     0.028 A 
ATOM      4  C4  LG1 d5015      37.664  -1.800  63.040  0.00  0.00     0.012 A 
ATOM      5  C5  LG1 d5015      38.042  -2.529  61.911  0.00  0.00     0.028 A 
ATOM      6  C6  LG1 d5015      39.160  -3.361  61.963  0.00  0.00    -0.033 A 
ATOM      7  C7  LG1 d5015      39.540  -4.129  60.738  0.00  0.00     0.050 C 
ATOM      8 BR1  LG1 d5015      36.150  -0.670  62.971  0.00  0.00    -0.051 Br
ATOM      9  C8  LG1 d5015      40.294  -2.827  65.544  0.00  0.00     0.050 C 
ENDROOT
BRANCH   1  10
ATOM     10  N1  LG1 d5015      41.049  -4.324  63.193  0.00  0.00    -0.265 N 
ATOM     11  C11 LG1 d5015      41.013  -5.655  63.608  0.00  0.00     0.148 C 
ATOM     12  S2  LG1 d5015      39.708  -6.660  63.911  0.00  0.00    -0.052 SA
ATOM     13  S1  LG1 d5015      42.655  -6.284  63.695  0.00  0.00    -0.090 SA
ATOM     14  C10 LG1 d5015      43.376  -4.858  62.884  0.00  0.00     0.185 C 
ATOM     15  C9  LG1 d5015      42.301  -3.811  62.824  0.00  0.00     0.239 C 
ATOM     16  O1  LG1 d5015      42.569  -2.657  62.499  0.00  0.00    -0.272 OA
ENDBRANCH   1  10
TORSDOF 1
ENDMDL
MODEL 5
REMARK VINA RESULT:    -4.253      3.187      3.847
REMARK INTER + INTRA:          -4.710
REMARK INTER:                  -4.502
REMARK INTRA:                  -0.208
REMARK UNBOUND:                -0.208
REMARK  1 active torsions:
REMARK  status: ('A' for Active; 'I' for Inactive)
REMARK    1  A    between atoms: C1_1  and  N1_10 
ROOT
ATOM      1  C1  LG1 d5015      38.150  -1.812  60.124  0.00  0.00     0.056 A 
ATOM      2  C2  LG1 d5015      38.087  -2.284  61.435  0.00  0.00    -0.033 A 
ATOM      3  C3  LG1 d5015      37.305  -1.617  62.379  0.00  0.00     0.028 A 
ATOM      4  C4  LG1 d5015      36.586  -0.480  62.012  0.00  0.00     0.012 A 
ATOM      5  C5  LG1 d5015      36.650  -0.008  60.700  0.00  0.00     0.028 A 
ATOM      6  C6  LG1 d5015      37.432  -0.674  59.758  0.00  0.00    -0.033 A 
ATOM      7  C7  LG1 d5015      37.480  -0.144  58.361  0.00  0.00     0.050 C 
ATOM      8 BR1  LG1 d5015      35.529   0.423  63.292  0.00  0.00    -0.051 Br
ATOM      9  C8  LG1 d5015      38.844  -3.501  61.858  0.00  0.00     0.050 C 
ENDROOT
BRANCH   1  10
ATOM     10  N1  LG1 d5015      38.953  -2.499  59.152  0.00  0.00    -0.265 N 
ATOM     11  C11 LG1 d5015      38.498  -3.561  58.370  0.00  0.00     0.148 C 
ATOM     12  S2  LG1 d5015      36.949  -4.160  58.153  0.00  0.00    -0.052 SA
ATOM     13  S1  LG1 d5015      39.842  -4.226  57.450  0.00  0.00    -0.090 SA
ATOM     14  C10 LG1 d5015      40.958  -2.890  57.878  0.00  0.00     0.185 C 
ATOM     15  C9  LG1 d5015      40.287  -2.107  58.969  0.00  0.00     0.239 C 
ATOM     16  O1  LG1 d5015      40.906  -1.251  59.596  0.00  0.00    -0.272 OA
ENDBRANCH   1  10
TORSDOF 1
ENDMDL
