REMARK INTER + INTRA:          -6.003
REMARK INTER:                  -5.836
REMARK INTRA:                  -0.166
REMARK UNBOUND:                -0.105
REMARK  1 active torsions:
REMARK  status: ('A' for Active; 'I' for Inactive)
REMARK    1  A    between atoms: C10_13  and  C11_14 
ROOT
ATOM      1  C1  LG1 d5015      36.782   1.126  59.461  0.00  0.00     0.018 C 
ATOM      2  C2  LG1 d5015      37.047   1.893  58.219  0.00  0.00     0.193 C 
ATOM      3  C3  LG1 d5015      37.611   1.091  57.112  0.00  0.00     0.049 A 
ATOM      4  C4  LG1 d5015      38.010   1.714  55.928  0.00  0.00     0.037 A 
ATOM      5  C5  LG1 d5015      38.485   0.942  54.867  0.00  0.00     0.012 A 
ATOM      6  C6  LG1 d5015      38.552  -0.447  54.982  0.00  0.00     0.022 A 
ATOM      7  C7  LG1 d5015      38.150  -1.069  56.165  0.00  0.00     0.039 A 
ATOM      8  C8  LG1 d5015      37.695  -0.301  57.237  0.00  0.00     0.083 A 
ATOM      9  O1  LG1 d5015      37.300  -0.978  58.361  0.00  0.00    -0.346 OA
ATOM     10  C9  LG1 d5015      37.445  -0.210  59.560  0.00  0.00     0.218 C 
ATOM     11 BR1  LG1 d5015      39.056   1.782  53.271  0.00  0.00    -0.051 Br
ATOM     12  O2  LG1 d5015      36.827   3.089  58.100  0.00  0.00    -0.287 OA
ATOM     13  C10 LG1 d5015      35.992   1.654  60.404  0.00  0.00     0.025 C 
ENDROOT
BRANCH  13  14
ATOM     14  C11 LG1 d5015      35.662   1.012  61.641  0.00  0.00    -0.029 A 
ATOM     15  C14 LG1 d5015      34.579   0.174  61.783  0.00  0.00     0.061 A 
ATOM     16  S1  LG1 d5015      34.446  -0.441  63.374  0.00  0.00    -0.113 SA
ATOM     17  C13 LG1 d5015      35.841   0.415  63.879  0.00  0.00     0.050 A 
ATOM     18  C12 LG1 d5015      36.394   1.151  62.856  0.00  0.00     0.019 A 
ENDBRANCH  13  14
TORSDOF 1
ENDMDL
