REMARK INTER + INTRA:          -5.368
REMARK INTER:                  -5.200
REMARK INTRA:                  -0.168
REMARK UNBOUND:                -0.169
REMARK  1 active torsions:
REMARK  status: ('A' for Active; 'I' for Inactive)
REMARK    1  A    between atoms: C10_13  and  C11_14 
ROOT
ATOM      1  C1  LG1 d5015      38.831  -1.055  58.788  0.00  0.00     0.018 C 
ATOM      2  C2  LG1 d5015      38.043  -1.501  59.964  0.00  0.00     0.193 C 
ATOM      3  C3  LG1 d5015      37.157  -0.465  60.536  0.00  0.00     0.049 A 
ATOM      4  C4  LG1 d5015      36.447  -0.722  61.710  0.00  0.00     0.037 A 
ATOM      5  C5  LG1 d5015      35.566   0.239  62.210  0.00  0.00     0.012 A 
ATOM      6  C6  LG1 d5015      35.387   1.447  61.535  0.00  0.00     0.022 A 
ATOM      7  C7  LG1 d5015      36.094   1.701  60.359  0.00  0.00     0.039 A 
ATOM      8  C8  LG1 d5015      36.992   0.754  59.867  0.00  0.00     0.083 A 
ATOM      9  O1  LG1 d5015      37.640   1.061  58.700  0.00  0.00    -0.346 OA
ATOM     10  C9  LG1 d5015      38.915   0.422  58.578  0.00  0.00     0.218 C 
ATOM     11 BR1  LG1 d5015      34.624  -0.090  63.817  0.00  0.00    -0.051 Br
ATOM     12  O2  LG1 d5015      38.108  -2.626  60.437  0.00  0.00    -0.287 OA
ATOM     13  C10 LG1 d5015      39.414  -1.969  58.002  0.00  0.00     0.025 C 
ENDROOT
BRANCH  13  14
ATOM     14  C11 LG1 d5015      40.196  -1.662  56.842  0.00  0.00    -0.029 A 
ATOM     15  C14 LG1 d5015      41.567  -1.545  56.876  0.00  0.00     0.061 A 
ATOM     16  S1  LG1 d5015      42.217  -1.175  55.336  0.00  0.00    -0.113 SA
ATOM     17  C13 LG1 d5015      40.663  -1.172  54.619  0.00  0.00     0.050 A 
ATOM     18  C12 LG1 d5015      39.672  -1.447  55.535  0.00  0.00     0.019 A 
ENDBRANCH  13  14
TORSDOF 1
ENDMDL
