REMARK INTER + INTRA:          -4.935
REMARK INTER:                  -4.816
REMARK INTRA:                  -0.119
REMARK UNBOUND:                -0.119
REMARK  1 active torsions:
REMARK  status: ('A' for Active; 'I' for Inactive)
REMARK    1  A    between atoms: C10_13  and  C11_14 
ROOT
ATOM      1  C1  LG1 d5015      37.995  -0.518  59.863  0.00  0.00     0.018 C 
ATOM      2  C2  LG1 d5015      39.177  -0.996  59.104  0.00  0.00     0.193 C 
ATOM      3  C3  LG1 d5015      39.746  -0.005  58.167  0.00  0.00     0.049 A 
ATOM      4  C4  LG1 d5015      40.789  -0.367  57.312  0.00  0.00     0.037 A 
ATOM      5  C5  LG1 d5015      41.360   0.592  56.474  0.00  0.00     0.012 A 
ATOM      6  C6  LG1 d5015      40.900   1.909  56.496  0.00  0.00     0.022 A 
ATOM      7  C7  LG1 d5015      39.860   2.271  57.353  0.00  0.00     0.039 A 
ATOM      8  C8  LG1 d5015      39.270   1.312  58.177  0.00  0.00     0.083 A 
ATOM      9  O1  LG1 d5015      38.266   1.739  59.005  0.00  0.00    -0.346 OA
ATOM     10  C9  LG1 d5015      37.328   0.709  59.331  0.00  0.00     0.218 C 
ATOM     11 BR1  LG1 d5015      42.753   0.102  55.292  0.00  0.00    -0.051 Br
ATOM     12  O2  LG1 d5015      39.655  -2.115  59.227  0.00  0.00    -0.287 OA
ATOM     13  C10 LG1 d5015      37.596  -1.190  60.950  0.00  0.00     0.025 C 
ENDROOT
BRANCH  13  14
ATOM     14  C11 LG1 d5015      36.474  -0.827  61.763  0.00  0.00    -0.029 A 
ATOM     15  C14 LG1 d5015      36.606  -0.197  62.980  0.00  0.00     0.061 A 
ATOM     16  S1  LG1 d5015      35.089   0.109  63.712  0.00  0.00    -0.113 SA
ATOM     17  C13 LG1 d5015      34.250  -0.603  62.402  0.00  0.00     0.050 A 
ATOM     18  C12 LG1 d5015      35.109  -1.062  61.427  0.00  0.00     0.019 A 
ENDBRANCH  13  14
TORSDOF 1
ENDMDL
