MODEL 1
REMARK VINA RESULT:    -5.559      0.000      0.000
REMARK INTER + INTRA:          -6.046
REMARK INTER:                  -5.883
REMARK INTRA:                  -0.163
REMARK UNBOUND:                -0.162
REMARK  1 active torsions:
REMARK  status: ('A' for Active; 'I' for Inactive)
REMARK    1  A    between atoms: C10_13  and  C11_14 
ROOT
ATOM      1  C1  LG1 d5015      36.784   1.160  59.427  0.00  0.00     0.018 C 
ATOM      2  C2  LG1 d5015      37.055   1.917  58.180  0.00  0.00     0.193 C 
ATOM      3  C3  LG1 d5015      37.692   1.123  57.108  0.00  0.00     0.049 A 
ATOM      4  C4  LG1 d5015      38.101   1.744  55.926  0.00  0.00     0.037 A 
ATOM      5  C5  LG1 d5015      38.647   0.977  54.895  0.00  0.00     0.012 A 
ATOM      6  C6  LG1 d5015      38.775  -0.405  55.039  0.00  0.00     0.022 A 
ATOM      7  C7  LG1 d5015      38.363  -1.025  56.220  0.00  0.00     0.039 A 
ATOM      8  C8  LG1 d5015      37.837  -0.261  57.262  0.00  0.00     0.083 A 
ATOM      9  O1  LG1 d5015      37.437  -0.935  58.385  0.00  0.00    -0.346 OA
ATOM     10  C9  LG1 d5015      37.505  -0.140  59.574  0.00  0.00     0.218 C 
ATOM     11 BR1  LG1 d5015      39.231   1.815  53.303  0.00  0.00    -0.051 Br
ATOM     12  O2  LG1 d5015      36.782   3.100  58.031  0.00  0.00    -0.287 OA
ATOM     13  C10 LG1 d5015      35.939   1.667  60.333  0.00  0.00     0.025 C 
ENDROOT
BRANCH  13  14
ATOM     14  C11 LG1 d5015      35.598   1.032  61.571  0.00  0.00    -0.029 A 
ATOM     15  C14 LG1 d5015      34.572   0.122  61.686  0.00  0.00     0.061 A 
ATOM     16  S1  LG1 d5015      34.410  -0.464  63.286  0.00  0.00    -0.113 SA
ATOM     17  C13 LG1 d5015      35.714   0.501  63.830  0.00  0.00     0.050 A 
ATOM     18  C12 LG1 d5015      36.260   1.251  62.814  0.00  0.00     0.019 A 
ENDBRANCH  13  14
TORSDOF 1
ENDMDL
MODEL 2
REMARK VINA RESULT:    -5.177      4.030      6.541
REMARK INTER + INTRA:          -5.641
REMARK INTER:                  -5.474
REMARK INTRA:                  -0.167
REMARK UNBOUND:                -0.162
REMARK  1 active torsions:
REMARK  status: ('A' for Active; 'I' for Inactive)
REMARK    1  A    between atoms: C10_13  and  C11_14 
ROOT
ATOM      1  C1  LG1 d5015      37.706   1.083  58.036  0.00  0.00     0.018 C 
ATOM      2  C2  LG1 d5015      36.815   1.468  59.158  0.00  0.00     0.193 C 
ATOM      3  C3  LG1 d5015      36.751   0.481  60.257  0.00  0.00     0.049 A 
ATOM      4  C4  LG1 d5015      35.865   0.671  61.318  0.00  0.00     0.037 A 
ATOM      5  C5  LG1 d5015      35.854  -0.233  62.381  0.00  0.00     0.012 A 
ATOM      6  C6  LG1 d5015      36.732  -1.318  62.390  0.00  0.00     0.022 A 
ATOM      7  C7  LG1 d5015      37.621  -1.505  61.330  0.00  0.00     0.039 A 
ATOM      8  C8  LG1 d5015      37.620  -0.616  60.255  0.00  0.00     0.083 A 
ATOM      9  O1  LG1 d5015      38.530  -0.850  59.257  0.00  0.00    -0.346 OA
ATOM     10  C9  LG1 d5015      38.106  -0.356  57.982  0.00  0.00     0.218 C 
ATOM     11 BR1  LG1 d5015      34.634   0.001  63.807  0.00  0.00    -0.051 Br
ATOM     12  O2  LG1 d5015      36.176   2.510  59.190  0.00  0.00    -0.287 OA
ATOM     13  C10 LG1 d5015      38.091   2.012  57.153  0.00  0.00     0.025 C 
ENDROOT
BRANCH  13  14
ATOM     14  C11 LG1 d5015      38.947   1.763  56.032  0.00  0.00    -0.029 A 
ATOM     15  C14 LG1 d5015      38.471   1.394  54.795  0.00  0.00     0.061 A 
ATOM     16  S1  LG1 d5015      39.733   1.170  53.661  0.00  0.00    -0.113 SA
ATOM     17  C13 LG1 d5015      40.923   1.567  54.825  0.00  0.00     0.050 A 
ATOM     18  C12 LG1 d5015      40.369   1.864  56.050  0.00  0.00     0.019 A 
ENDBRANCH  13  14
TORSDOF 1
ENDMDL
MODEL 3
REMARK VINA RESULT:    -5.159      6.092      7.522
REMARK INTER + INTRA:          -5.623
REMARK INTER:                  -5.865
REMARK INTRA:                   0.243
REMARK UNBOUND:                -0.162
REMARK  1 active torsions:
REMARK  status: ('A' for Active; 'I' for Inactive)
REMARK    1  A    between atoms: C10_13  and  C11_14 
ROOT
ATOM      1  C1  LG1 d5015      38.500  -2.249  63.466  0.00  0.00     0.018 C 
ATOM      2  C2  LG1 d5015      39.528  -2.760  64.407  0.00  0.00     0.193 C 
ATOM      3  C3  LG1 d5015      40.577  -3.588  63.775  0.00  0.00     0.049 A 
ATOM      4  C4  LG1 d5015      41.539  -4.222  64.565  0.00  0.00     0.037 A 
ATOM      5  C5  LG1 d5015      42.561  -4.951  63.957  0.00  0.00     0.012 A 
ATOM      6  C6  LG1 d5015      42.631  -5.041  62.567  0.00  0.00     0.022 A 
ATOM      7  C7  LG1 d5015      41.671  -4.404  61.778  0.00  0.00     0.039 A 
ATOM      8  C8  LG1 d5015      40.635  -3.692  62.380  0.00  0.00     0.083 A 
ATOM      9  O1  LG1 d5015      39.738  -3.078  61.547  0.00  0.00    -0.346 OA
ATOM     10  C9  LG1 d5015      38.441  -2.919  62.132  0.00  0.00     0.218 C 
ATOM     11 BR1  LG1 d5015      43.849  -5.838  65.022  0.00  0.00    -0.051 Br
ATOM     12  O2  LG1 d5015      39.524  -2.529  65.607  0.00  0.00    -0.287 OA
ATOM     13  C10 LG1 d5015      37.699  -1.247  63.850  0.00  0.00     0.025 C 
ENDROOT
BRANCH  13  14
ATOM     14  C11 LG1 d5015      36.673  -0.669  63.034  0.00  0.00    -0.029 A 
ATOM     15  C14 LG1 d5015      36.888  -0.270  61.734  0.00  0.00     0.061 A 
ATOM     16  S1  LG1 d5015      35.475   0.379  61.019  0.00  0.00    -0.113 SA
ATOM     17  C13 LG1 d5015      34.570   0.128  62.450  0.00  0.00     0.050 A 
ATOM     18  C12 LG1 d5015      35.329  -0.439  63.449  0.00  0.00     0.019 A 
ENDBRANCH  13  14
TORSDOF 1
ENDMDL
MODEL 4
REMARK VINA RESULT:    -4.976      4.220      6.973
REMARK INTER + INTRA:          -5.429
REMARK INTER:                  -5.262
REMARK INTRA:                  -0.167
REMARK UNBOUND:                -0.162
REMARK  1 active torsions:
REMARK  status: ('A' for Active; 'I' for Inactive)
REMARK    1  A    between atoms: C10_13  and  C11_14 
ROOT
ATOM      1  C1  LG1 d5015      38.901  -0.999  58.828  0.00  0.00     0.018 C 
ATOM      2  C2  LG1 d5015      38.111  -1.459  59.997  0.00  0.00     0.193 C 
ATOM      3  C3  LG1 d5015      37.191  -0.443  60.553  0.00  0.00     0.049 A 
ATOM      4  C4  LG1 d5015      36.474  -0.713  61.720  0.00  0.00     0.037 A 
ATOM      5  C5  LG1 d5015      35.563   0.228  62.204  0.00  0.00     0.012 A 
ATOM      6  C6  LG1 d5015      35.362   1.428  61.521  0.00  0.00     0.022 A 
ATOM      7  C7  LG1 d5015      36.076   1.694  60.352  0.00  0.00     0.039 A 
ATOM      8  C8  LG1 d5015      37.004   0.768  59.876  0.00  0.00     0.083 A 
ATOM      9  O1  LG1 d5015      37.658   1.085  58.715  0.00  0.00    -0.346 OA
ATOM     10  C9  LG1 d5015      38.950   0.479  58.611  0.00  0.00     0.218 C 
ATOM     11 BR1  LG1 d5015      34.611  -0.117  63.802  0.00  0.00    -0.051 Br
ATOM     12  O2  LG1 d5015      38.199  -2.580  60.476  0.00  0.00    -0.287 OA
ATOM     13  C10 LG1 d5015      39.516  -1.901  58.054  0.00  0.00     0.025 C 
ENDROOT
BRANCH  13  14
ATOM     14  C11 LG1 d5015      40.304  -1.581  56.902  0.00  0.00    -0.029 A 
ATOM     15  C14 LG1 d5015      39.770  -1.472  55.638  0.00  0.00     0.061 A 
ATOM     16  S1  LG1 d5015      40.959  -1.078  54.471  0.00  0.00    -0.113 SA
ATOM     17  C13 LG1 d5015      42.193  -1.052  55.656  0.00  0.00     0.050 A 
ATOM     18  C12 LG1 d5015      41.709  -1.337  56.912  0.00  0.00     0.019 A 
ENDBRANCH  13  14
TORSDOF 1
ENDMDL
MODEL 5
REMARK VINA RESULT:    -4.901      4.246      5.688
REMARK INTER + INTRA:          -5.350
REMARK INTER:                  -5.187
REMARK INTRA:                  -0.162
REMARK UNBOUND:                -0.162
REMARK  1 active torsions:
REMARK  status: ('A' for Active; 'I' for Inactive)
REMARK    1  A    between atoms: C10_13  and  C11_14 
ROOT
ATOM      1  C1  LG1 d5015      38.848  -2.621  60.776  0.00  0.00     0.018 C 
ATOM      2  C2  LG1 d5015      38.826  -1.673  59.635  0.00  0.00     0.193 C 
ATOM      3  C3  LG1 d5015      37.864  -0.559  59.782  0.00  0.00     0.049 A 
ATOM      4  C4  LG1 d5015      37.666   0.338  58.731  0.00  0.00     0.037 A 
ATOM      5  C5  LG1 d5015      36.802   1.421  58.901  0.00  0.00     0.012 A 
ATOM      6  C6  LG1 d5015      36.146   1.614  60.118  0.00  0.00     0.022 A 
ATOM      7  C7  LG1 d5015      36.348   0.718  61.169  0.00  0.00     0.039 A 
ATOM      8  C8  LG1 d5015      37.194  -0.378  60.998  0.00  0.00     0.083 A 
ATOM      9  O1  LG1 d5015      37.360  -1.207  62.076  0.00  0.00    -0.346 OA
ATOM     10  C9  LG1 d5015      37.681  -2.553  61.707  0.00  0.00     0.218 C 
ATOM     11 BR1  LG1 d5015      36.504   2.623  57.471  0.00  0.00    -0.051 Br
ATOM     12  O2  LG1 d5015      39.534  -1.785  58.645  0.00  0.00    -0.287 OA
ATOM     13  C10 LG1 d5015      39.876  -3.468  60.907  0.00  0.00     0.025 C 
ENDROOT
BRANCH  13  14
ATOM     14  C11 LG1 d5015      40.010  -4.426  61.963  0.00  0.00    -0.029 A 
ATOM     15  C14 LG1 d5015      40.713  -4.172  63.118  0.00  0.00     0.061 A 
ATOM     16  S1  LG1 d5015      40.692  -5.506  64.190  0.00  0.00    -0.113 SA
ATOM     17  C13 LG1 d5015      39.741  -6.430  63.108  0.00  0.00     0.050 A 
ATOM     18  C12 LG1 d5015      39.446  -5.736  61.957  0.00  0.00     0.019 A 
ENDBRANCH  13  14
TORSDOF 1
ENDMDL
