REMARK INTER + INTRA:          -7.499
REMARK INTER:                  -6.970
REMARK INTRA:                  -0.529
REMARK UNBOUND:                -0.516
REMARK  2 active torsions:
REMARK  status: ('A' for Active; 'I' for Inactive)
REMARK    1  A    between atoms: C1_1  and  N1_15 
REMARK    2  A    between atoms: C7_9  and  C4_4 
ROOT
ATOM      1  C1  LG1 d5015      37.713   0.892  59.113  0.00  0.00     0.141 A 
ATOM      2  C2  LG1 d5015      37.928  -0.361  59.688  0.00  0.00     0.187 A 
ATOM      3  C3  LG1 d5015      37.155  -0.773  60.773  0.00  0.00     0.175 A 
ATOM      4  C4  LG1 d5015      36.168   0.068  61.285  0.00  0.00     0.131 A 
ATOM      5  C5  LG1 d5015      35.953   1.321  60.712  0.00  0.00     0.175 A 
ATOM      6  C6  LG1 d5015      36.725   1.732  59.627  0.00  0.00     0.187 A 
ATOM      7  F1  LG1 d5015      36.507   2.940  59.086  0.00  0.00    -0.200 F 
ATOM      8  F2  LG1 d5015      35.006   2.137  61.199  0.00  0.00    -0.202 F 
ATOM      9  F6  LG1 d5015      37.370  -1.981  61.317  0.00  0.00    -0.202 F 
ATOM     10  F7  LG1 d5015      38.874  -1.180  59.204  0.00  0.00    -0.200 F 
ENDROOT
BRANCH   1  11
ATOM     11  N1  LG1 d5015      38.479   1.301  58.037  0.00  0.00    -0.232 N 
ATOM     12  N2  LG1 d5015      39.644   1.938  58.251  0.00  0.00    -0.172 NA
ATOM     13  C10 LG1 d5015      40.090   2.174  57.015  0.00  0.00     0.053 A 
ATOM     14  C9  LG1 d5015      39.218   1.693  56.020  0.00  0.00     0.055 A 
ATOM     15  C11 LG1 d5015      41.374   2.870  56.822  0.00  0.00     0.072 C 
ATOM     16  C8  LG1 d5015      38.178   1.130  56.719  0.00  0.00     0.035 A 
ATOM     17  C12 LG1 d5015      36.955   0.458  56.241  0.00  0.00     0.070 C 
ENDBRANCH   1  11
BRANCH   4  18
ATOM     18  C7  LG1 d5015      35.342  -0.373  62.447  0.00  0.00     0.423 C 
ATOM     19  F4  LG1 d5015      34.413  -1.321  62.129  0.00  0.00    -0.166 F 
ATOM     20  F3  LG1 d5015      34.634   0.639  63.031  0.00  0.00    -0.166 F 
ATOM     21  F5  LG1 d5015      36.094  -0.918  63.448  0.00  0.00    -0.166 F 
ENDBRANCH   4  18
TORSDOF 2
ENDMDL
