REMARK INTER + INTRA:          -5.641
REMARK INTER:                  -5.474
REMARK INTRA:                  -0.167
REMARK UNBOUND:                -0.162
REMARK  1 active torsions:
REMARK  status: ('A' for Active; 'I' for Inactive)
REMARK    1  A    between atoms: C10_13  and  C11_14 
ROOT
ATOM      1  C1  LG1 d5015      37.706   1.083  58.036  0.00  0.00     0.018 C 
ATOM      2  C2  LG1 d5015      36.815   1.468  59.158  0.00  0.00     0.193 C 
ATOM      3  C3  LG1 d5015      36.751   0.481  60.257  0.00  0.00     0.049 A 
ATOM      4  C4  LG1 d5015      35.865   0.671  61.318  0.00  0.00     0.037 A 
ATOM      5  C5  LG1 d5015      35.854  -0.233  62.381  0.00  0.00     0.012 A 
ATOM      6  C6  LG1 d5015      36.732  -1.318  62.390  0.00  0.00     0.022 A 
ATOM      7  C7  LG1 d5015      37.621  -1.505  61.330  0.00  0.00     0.039 A 
ATOM      8  C8  LG1 d5015      37.620  -0.616  60.255  0.00  0.00     0.083 A 
ATOM      9  O1  LG1 d5015      38.530  -0.850  59.257  0.00  0.00    -0.346 OA
ATOM     10  C9  LG1 d5015      38.106  -0.356  57.982  0.00  0.00     0.218 C 
ATOM     11 BR1  LG1 d5015      34.634   0.001  63.807  0.00  0.00    -0.051 Br
ATOM     12  O2  LG1 d5015      36.176   2.510  59.190  0.00  0.00    -0.287 OA
ATOM     13  C10 LG1 d5015      38.091   2.012  57.153  0.00  0.00     0.025 C 
ENDROOT
BRANCH  13  14
ATOM     14  C11 LG1 d5015      38.947   1.763  56.032  0.00  0.00    -0.029 A 
ATOM     15  C14 LG1 d5015      38.471   1.394  54.795  0.00  0.00     0.061 A 
ATOM     16  S1  LG1 d5015      39.733   1.170  53.661  0.00  0.00    -0.113 SA
ATOM     17  C13 LG1 d5015      40.923   1.567  54.825  0.00  0.00     0.050 A 
ATOM     18  C12 LG1 d5015      40.369   1.864  56.050  0.00  0.00     0.019 A 
ENDBRANCH  13  14
TORSDOF 1
ENDMDL
