REMARK INTER + INTRA:          -7.493
REMARK INTER:                  -6.977
REMARK INTRA:                  -0.516
REMARK UNBOUND:                -0.516
REMARK  2 active torsions:
REMARK  status: ('A' for Active; 'I' for Inactive)
REMARK    1  A    between atoms: C1_1  and  N1_15 
REMARK    2  A    between atoms: C7_9  and  C4_4 
ROOT
ATOM      1  C1  LG1 d5015      37.815   0.904  59.090  0.00  0.00     0.141 A 
ATOM      2  C2  LG1 d5015      36.793   1.729  59.560  0.00  0.00     0.187 A 
ATOM      3  C3  LG1 d5015      36.014   1.325  60.644  0.00  0.00     0.175 A 
ATOM      4  C4  LG1 d5015      36.256   0.096  61.258  0.00  0.00     0.131 A 
ATOM      5  C5  LG1 d5015      37.277  -0.729  60.788  0.00  0.00     0.175 A 
ATOM      6  C6  LG1 d5015      38.057  -0.325  59.705  0.00  0.00     0.187 A 
ATOM      7  F1  LG1 d5015      39.035  -1.128  59.264  0.00  0.00    -0.200 F 
ATOM      8  F2  LG1 d5015      37.517  -1.913  61.372  0.00  0.00    -0.202 F 
ATOM      9  F6  LG1 d5015      35.034   2.126  61.088  0.00  0.00    -0.202 F 
ATOM     10  F7  LG1 d5015      36.550   2.913  58.980  0.00  0.00    -0.200 F 
ENDROOT
BRANCH   1  11
ATOM     11  N1  LG1 d5015      38.588   1.304  58.015  0.00  0.00    -0.232 N 
ATOM     12  N2  LG1 d5015      39.661   2.088  58.219  0.00  0.00    -0.172 NA
ATOM     13  C10 LG1 d5015      40.145   2.264  56.988  0.00  0.00     0.053 A 
ATOM     14  C9  LG1 d5015      39.388   1.599  56.004  0.00  0.00     0.055 A 
ATOM     15  C11 LG1 d5015      41.351   3.086  56.787  0.00  0.00     0.072 C 
ATOM     16  C8  LG1 d5015      38.381   0.983  56.707  0.00  0.00     0.035 A 
ATOM     17  C12 LG1 d5015      37.268   0.133  56.240  0.00  0.00     0.070 C 
ENDBRANCH   1  11
BRANCH   4  18
ATOM     18  C7  LG1 d5015      35.421  -0.336  62.417  0.00  0.00     0.423 C 
ATOM     19  F4  LG1 d5015      34.505  -1.298  62.102  0.00  0.00    -0.166 F 
ATOM     20  F3  LG1 d5015      34.696   0.677  62.976  0.00  0.00    -0.166 F 
ATOM     21  F5  LG1 d5015      36.166  -0.858  63.434  0.00  0.00    -0.166 F 
ENDBRANCH   4  18
TORSDOF 2
ENDMDL
