REMARK INTER + INTRA:          -8.635
REMARK INTER:                  -8.144
REMARK INTRA:                  -0.492
REMARK UNBOUND:                -0.516
REMARK  2 active torsions:
REMARK  status: ('A' for Active; 'I' for Inactive)
REMARK    1  A    between atoms: C1_1  and  N1_15 
REMARK    2  A    between atoms: C7_9  and  C4_4 
ROOT
ATOM      1  C1  LG1 d5015      37.316   0.472  59.219  0.00  0.00     0.141 A 
ATOM      2  C2  LG1 d5015      36.502   1.462  59.770  0.00  0.00     0.187 A 
ATOM      3  C3  LG1 d5015      35.995   1.309  61.060  0.00  0.00     0.175 A 
ATOM      4  C4  LG1 d5015      36.300   0.167  61.799  0.00  0.00     0.131 A 
ATOM      5  C5  LG1 d5015      37.112  -0.824  61.248  0.00  0.00     0.175 A 
ATOM      6  C6  LG1 d5015      37.620  -0.671  59.958  0.00  0.00     0.187 A 
ATOM      7  F1  LG1 d5015      38.400  -1.631  59.442  0.00  0.00    -0.200 F 
ATOM      8  F2  LG1 d5015      37.411  -1.926  61.952  0.00  0.00    -0.202 F 
ATOM      9  F6  LG1 d5015      35.214   2.268  61.580  0.00  0.00    -0.202 F 
ATOM     10  F7  LG1 d5015      36.201   2.566  59.070  0.00  0.00    -0.200 F 
ENDROOT
BRANCH   1  11
ATOM     11  N1  LG1 d5015      37.819   0.622  57.939  0.00  0.00    -0.232 N 
ATOM     12  N2  LG1 d5015      37.210   0.013  56.907  0.00  0.00    -0.172 NA
ATOM     13  C10 LG1 d5015      37.956   0.374  55.860  0.00  0.00     0.053 A 
ATOM     14  C9  LG1 d5015      39.034   1.206  56.220  0.00  0.00     0.055 A 
ATOM     15  C11 LG1 d5015      37.603  -0.102  54.511  0.00  0.00     0.072 C 
ATOM     16  C8  LG1 d5015      38.916   1.348  57.582  0.00  0.00     0.035 A 
ATOM     17  C12 LG1 d5015      39.744   2.104  58.542  0.00  0.00     0.070 C 
ENDBRANCH   1  11
BRANCH   4  18
ATOM     18  C7  LG1 d5015      35.756   0.004  63.179  0.00  0.00     0.423 C 
ATOM     19  F4  LG1 d5015      35.834   1.138  63.934  0.00  0.00    -0.166 F 
ATOM     20  F3  LG1 d5015      36.397  -0.955  63.910  0.00  0.00    -0.166 F 
ATOM     21  F5  LG1 d5015      34.438  -0.351  63.185  0.00  0.00    -0.166 F 
ENDBRANCH   4  18
TORSDOF 2
ENDMDL
