MODEL 1
REMARK VINA RESULT:    -5.534      0.000      0.000
REMARK INTER + INTRA:          -6.026
REMARK INTER:                  -5.875
REMARK INTRA:                  -0.152
REMARK UNBOUND:                -0.169
REMARK  1 active torsions:
REMARK  status: ('A' for Active; 'I' for Inactive)
REMARK    1  A    between atoms: C10_13  and  C11_14 
ROOT
ATOM      1  C1  LG1 d5015      36.762   1.143  59.395  0.00  0.00     0.018 C 
ATOM      2  C2  LG1 d5015      37.038   1.902  58.149  0.00  0.00     0.193 C 
ATOM      3  C3  LG1 d5015      37.625   1.095  57.059  0.00  0.00     0.049 A 
ATOM      4  C4  LG1 d5015      38.036   1.711  55.875  0.00  0.00     0.037 A 
ATOM      5  C5  LG1 d5015      38.532   0.934  54.828  0.00  0.00     0.012 A 
ATOM      6  C6  LG1 d5015      38.610  -0.454  54.956  0.00  0.00     0.022 A 
ATOM      7  C7  LG1 d5015      38.196  -1.069  56.139  0.00  0.00     0.039 A 
ATOM      8  C8  LG1 d5015      37.719  -0.295  57.197  0.00  0.00     0.083 A 
ATOM      9  O1  LG1 d5015      37.314  -0.965  58.321  0.00  0.00    -0.346 OA
ATOM     10  C9  LG1 d5015      37.434  -0.185  59.516  0.00  0.00     0.218 C 
ATOM     11 BR1  LG1 d5015      39.119   1.764  53.233  0.00  0.00    -0.051 Br
ATOM     12  O2  LG1 d5015      36.809   3.095  58.017  0.00  0.00    -0.287 OA
ATOM     13  C10 LG1 d5015      35.953   1.673  60.321  0.00  0.00     0.025 C 
ENDROOT
BRANCH  13  14
ATOM     14  C11 LG1 d5015      35.611   1.040  61.559  0.00  0.00    -0.029 A 
ATOM     15  C14 LG1 d5015      34.588   0.126  61.673  0.00  0.00     0.061 A 
ATOM     16  S1  LG1 d5015      34.422  -0.456  63.274  0.00  0.00    -0.113 SA
ATOM     17  C13 LG1 d5015      35.721   0.514  63.821  0.00  0.00     0.050 A 
ATOM     18  C12 LG1 d5015      36.268   1.264  62.803  0.00  0.00     0.019 A 
ENDBRANCH  13  14
TORSDOF 1
ENDMDL
MODEL 2
REMARK VINA RESULT:    -5.183      4.034      6.549
REMARK INTER + INTRA:          -5.655
REMARK INTER:                  -5.490
REMARK INTRA:                  -0.165
REMARK UNBOUND:                -0.169
REMARK  1 active torsions:
REMARK  status: ('A' for Active; 'I' for Inactive)
REMARK    1  A    between atoms: C10_13  and  C11_14 
ROOT
ATOM      1  C1  LG1 d5015      37.731   1.126  57.943  0.00  0.00     0.018 C 
ATOM      2  C2  LG1 d5015      36.858   1.524  59.076  0.00  0.00     0.193 C 
ATOM      3  C3  LG1 d5015      36.790   0.534  60.172  0.00  0.00     0.049 A 
ATOM      4  C4  LG1 d5015      35.918   0.736  61.245  0.00  0.00     0.037 A 
ATOM      5  C5  LG1 d5015      35.904  -0.172  62.304  0.00  0.00     0.012 A 
ATOM      6  C6  LG1 d5015      36.763  -1.271  62.300  0.00  0.00     0.022 A 
ATOM      7  C7  LG1 d5015      37.637  -1.470  61.230  0.00  0.00     0.039 A 
ATOM      8  C8  LG1 d5015      37.640  -0.578  60.158  0.00  0.00     0.083 A 
ATOM      9  O1  LG1 d5015      38.534  -0.823  59.149  0.00  0.00    -0.346 OA
ATOM     10  C9  LG1 d5015      38.106  -0.319  57.880  0.00  0.00     0.218 C 
ATOM     11 BR1  LG1 d5015      34.704   0.078  63.745  0.00  0.00    -0.051 Br
ATOM     12  O2  LG1 d5015      36.238   2.576  59.118  0.00  0.00    -0.287 OA
ATOM     13  C10 LG1 d5015      38.121   2.052  57.059  0.00  0.00     0.025 C 
ENDROOT
BRANCH  13  14
ATOM     14  C11 LG1 d5015      38.961   1.792  55.928  0.00  0.00    -0.029 A 
ATOM     15  C14 LG1 d5015      38.466   1.420  54.700  0.00  0.00     0.061 A 
ATOM     16  S1  LG1 d5015      39.712   1.182  53.550  0.00  0.00    -0.113 SA
ATOM     17  C13 LG1 d5015      40.920   1.578  54.695  0.00  0.00     0.050 A 
ATOM     18  C12 LG1 d5015      40.383   1.886  55.925  0.00  0.00     0.019 A 
ENDBRANCH  13  14
TORSDOF 1
ENDMDL
MODEL 3
REMARK VINA RESULT:    -5.133      6.106      7.548
REMARK INTER + INTRA:          -5.601
REMARK INTER:                  -5.850
REMARK INTRA:                   0.248
REMARK UNBOUND:                -0.169
REMARK  1 active torsions:
REMARK  status: ('A' for Active; 'I' for Inactive)
REMARK    1  A    between atoms: C10_13  and  C11_14 
ROOT
ATOM      1  C1  LG1 d5015      38.458  -2.250  63.428  0.00  0.00     0.018 C 
ATOM      2  C2  LG1 d5015      39.471  -2.771  64.379  0.00  0.00     0.193 C 
ATOM      3  C3  LG1 d5015      40.527  -3.597  63.756  0.00  0.00     0.049 A 
ATOM      4  C4  LG1 d5015      41.476  -4.239  64.555  0.00  0.00     0.037 A 
ATOM      5  C5  LG1 d5015      42.505  -4.966  63.956  0.00  0.00     0.012 A 
ATOM      6  C6  LG1 d5015      42.594  -5.045  62.566  0.00  0.00     0.022 A 
ATOM      7  C7  LG1 d5015      41.648  -4.400  61.769  0.00  0.00     0.039 A 
ATOM      8  C8  LG1 d5015      40.604  -3.690  62.362  0.00  0.00     0.083 A 
ATOM      9  O1  LG1 d5015      39.721  -3.067  61.520  0.00  0.00    -0.346 OA
ATOM     10  C9  LG1 d5015      38.416  -2.910  62.088  0.00  0.00     0.218 C 
ATOM     11 BR1  LG1 d5015      43.775  -5.864  65.033  0.00  0.00    -0.051 Br
ATOM     12  O2  LG1 d5015      39.450  -2.549  65.581  0.00  0.00    -0.287 OA
ATOM     13  C10 LG1 d5015      37.653  -1.249  63.807  0.00  0.00     0.025 C 
ENDROOT
BRANCH  13  14
ATOM     14  C11 LG1 d5015      36.641  -0.663  62.981  0.00  0.00    -0.029 A 
ATOM     15  C14 LG1 d5015      36.873  -0.265  61.684  0.00  0.00     0.061 A 
ATOM     16  S1  LG1 d5015      35.473   0.397  60.955  0.00  0.00    -0.113 SA
ATOM     17  C13 LG1 d5015      34.550   0.153  62.376  0.00  0.00     0.050 A 
ATOM     18  C12 LG1 d5015      35.295  -0.422  63.382  0.00  0.00     0.019 A 
ENDBRANCH  13  14
TORSDOF 1
ENDMDL
MODEL 4
REMARK VINA RESULT:    -4.914      4.254      5.676
REMARK INTER + INTRA:          -5.370
REMARK INTER:                  -5.202
REMARK INTRA:                  -0.169
REMARK UNBOUND:                -0.169
REMARK  1 active torsions:
REMARK  status: ('A' for Active; 'I' for Inactive)
REMARK    1  A    between atoms: C10_13  and  C11_14 
ROOT
ATOM      1  C1  LG1 d5015      38.868  -2.605  60.797  0.00  0.00     0.018 C 
ATOM      2  C2  LG1 d5015      38.861  -1.663  59.650  0.00  0.00     0.193 C 
ATOM      3  C3  LG1 d5015      37.894  -0.552  59.775  0.00  0.00     0.049 A 
ATOM      4  C4  LG1 d5015      37.710   0.339  58.716  0.00  0.00     0.037 A 
ATOM      5  C5  LG1 d5015      36.841   1.420  58.865  0.00  0.00     0.012 A 
ATOM      6  C6  LG1 d5015      36.165   1.618  60.070  0.00  0.00     0.022 A 
ATOM      7  C7  LG1 d5015      36.353   0.730  61.129  0.00  0.00     0.039 A 
ATOM      8  C8  LG1 d5015      37.204  -0.365  60.979  0.00  0.00     0.083 A 
ATOM      9  O1  LG1 d5015      37.355  -1.187  62.064  0.00  0.00    -0.346 OA
ATOM     10  C9  LG1 d5015      37.686  -2.534  61.709  0.00  0.00     0.218 C 
ATOM     11 BR1  LG1 d5015      36.563   2.613  57.423  0.00  0.00    -0.051 Br
ATOM     12  O2  LG1 d5015      39.586  -1.780  58.672  0.00  0.00    -0.287 OA
ATOM     13  C10 LG1 d5015      39.896  -3.448  60.949  0.00  0.00     0.025 C 
ENDROOT
BRANCH  13  14
ATOM     14  C11 LG1 d5015      40.016  -4.399  62.013  0.00  0.00    -0.029 A 
ATOM     15  C14 LG1 d5015      40.637  -4.111  63.207  0.00  0.00     0.061 A 
ATOM     16  S1  LG1 d5015      40.622  -5.446  64.278  0.00  0.00    -0.113 SA
ATOM     17  C13 LG1 d5015      39.781  -6.416  63.146  0.00  0.00     0.050 A 
ATOM     18  C12 LG1 d5015      39.518  -5.734  61.978  0.00  0.00     0.019 A 
ENDBRANCH  13  14
TORSDOF 1
ENDMDL
MODEL 5
REMARK VINA RESULT:    -4.912      4.203      7.031
REMARK INTER + INTRA:          -5.368
REMARK INTER:                  -5.200
REMARK INTRA:                  -0.168
REMARK UNBOUND:                -0.169
REMARK  1 active torsions:
REMARK  status: ('A' for Active; 'I' for Inactive)
REMARK    1  A    between atoms: C10_13  and  C11_14 
ROOT
ATOM      1  C1  LG1 d5015      38.831  -1.055  58.788  0.00  0.00     0.018 C 
ATOM      2  C2  LG1 d5015      38.043  -1.501  59.964  0.00  0.00     0.193 C 
ATOM      3  C3  LG1 d5015      37.157  -0.465  60.536  0.00  0.00     0.049 A 
ATOM      4  C4  LG1 d5015      36.447  -0.722  61.710  0.00  0.00     0.037 A 
ATOM      5  C5  LG1 d5015      35.566   0.239  62.210  0.00  0.00     0.012 A 
ATOM      6  C6  LG1 d5015      35.387   1.447  61.535  0.00  0.00     0.022 A 
ATOM      7  C7  LG1 d5015      36.094   1.701  60.359  0.00  0.00     0.039 A 
ATOM      8  C8  LG1 d5015      36.992   0.754  59.867  0.00  0.00     0.083 A 
ATOM      9  O1  LG1 d5015      37.640   1.061  58.700  0.00  0.00    -0.346 OA
ATOM     10  C9  LG1 d5015      38.915   0.422  58.578  0.00  0.00     0.218 C 
ATOM     11 BR1  LG1 d5015      34.624  -0.090  63.817  0.00  0.00    -0.051 Br
ATOM     12  O2  LG1 d5015      38.108  -2.626  60.437  0.00  0.00    -0.287 OA
ATOM     13  C10 LG1 d5015      39.414  -1.969  58.002  0.00  0.00     0.025 C 
ENDROOT
BRANCH  13  14
ATOM     14  C11 LG1 d5015      40.196  -1.662  56.842  0.00  0.00    -0.029 A 
ATOM     15  C14 LG1 d5015      41.567  -1.545  56.876  0.00  0.00     0.061 A 
ATOM     16  S1  LG1 d5015      42.217  -1.175  55.336  0.00  0.00    -0.113 SA
ATOM     17  C13 LG1 d5015      40.663  -1.172  54.619  0.00  0.00     0.050 A 
ATOM     18  C12 LG1 d5015      39.672  -1.447  55.535  0.00  0.00     0.019 A 
ENDBRANCH  13  14
TORSDOF 1
ENDMDL
