MODEL 1
REMARK VINA RESULT:    -4.819      0.000      0.000
REMARK INTER + INTRA:          -5.308
REMARK INTER:                  -5.212
REMARK INTRA:                  -0.096
REMARK UNBOUND:                -0.208
REMARK  1 active torsions:
REMARK  status: ('A' for Active; 'I' for Inactive)
REMARK    1  A    between atoms: C1_1  and  N1_10 
ROOT
ATOM      1  C1  LG1 d5015      37.748   0.570  58.796  0.00  0.00     0.056 A 
ATOM      2  C2  LG1 d5015      37.973  -0.457  59.712  0.00  0.00    -0.033 A 
ATOM      3  C3  LG1 d5015      37.228  -0.516  60.890  0.00  0.00     0.028 A 
ATOM      4  C4  LG1 d5015      36.259   0.452  61.153  0.00  0.00     0.012 A 
ATOM      5  C5  LG1 d5015      36.036   1.482  60.236  0.00  0.00     0.028 A 
ATOM      6  C6  LG1 d5015      36.780   1.539  59.059  0.00  0.00    -0.033 A 
ATOM      7  C7  LG1 d5015      36.518   2.653  58.097  0.00  0.00     0.050 C 
ATOM      8 BR1  LG1 d5015      35.252   0.374  62.750  0.00  0.00    -0.051 Br
ATOM      9  C8  LG1 d5015      39.002  -1.510  59.458  0.00  0.00     0.050 C 
ENDROOT
BRANCH   1  10
ATOM     10  N1  LG1 d5015      38.514   0.630  57.583  0.00  0.00    -0.265 N 
ATOM     11  C11 LG1 d5015      39.609   1.472  57.390  0.00  0.00     0.148 C 
ATOM     12  S2  LG1 d5015      40.461   2.411  58.485  0.00  0.00    -0.052 SA
ATOM     13  S1  LG1 d5015      40.140   1.365  55.716  0.00  0.00    -0.090 SA
ATOM     14  C10 LG1 d5015      39.087  -0.036  55.342  0.00  0.00     0.185 C 
ATOM     15  C9  LG1 d5015      38.147  -0.185  56.503  0.00  0.00     0.239 C 
ATOM     16  O1  LG1 d5015      37.181  -0.941  56.433  0.00  0.00    -0.272 OA
ENDBRANCH   1  10
TORSDOF 1
ENDMDL
MODEL 2
REMARK VINA RESULT:    -4.811      0.058      2.152
REMARK INTER + INTRA:          -5.300
REMARK INTER:                  -5.181
REMARK INTRA:                  -0.118
REMARK UNBOUND:                -0.208
REMARK  1 active torsions:
REMARK  status: ('A' for Active; 'I' for Inactive)
REMARK    1  A    between atoms: C1_1  and  N1_10 
ROOT
ATOM      1  C1  LG1 d5015      37.751   0.557  58.745  0.00  0.00     0.056 A 
ATOM      2  C2  LG1 d5015      36.763   1.509  58.996  0.00  0.00    -0.033 A 
ATOM      3  C3  LG1 d5015      36.017   1.445  60.173  0.00  0.00     0.028 A 
ATOM      4  C4  LG1 d5015      36.258   0.430  61.098  0.00  0.00     0.012 A 
ATOM      5  C5  LG1 d5015      37.246  -0.524  60.846  0.00  0.00     0.028 A 
ATOM      6  C6  LG1 d5015      37.991  -0.459  59.669  0.00  0.00    -0.033 A 
ATOM      7  C7  LG1 d5015      39.043  -1.494  59.427  0.00  0.00     0.050 C 
ATOM      8 BR1  LG1 d5015      35.246   0.343  62.692  0.00  0.00    -0.051 Br
ATOM      9  C8  LG1 d5015      36.483   2.610  58.025  0.00  0.00     0.050 C 
ENDROOT
BRANCH   1  10
ATOM     10  N1  LG1 d5015      38.520   0.623  57.534  0.00  0.00    -0.265 N 
ATOM     11  C11 LG1 d5015      39.612   1.470  57.347  0.00  0.00     0.148 C 
ATOM     12  S2  LG1 d5015      40.456   2.411  58.447  0.00  0.00    -0.052 SA
ATOM     13  S1  LG1 d5015      40.150   1.369  55.674  0.00  0.00    -0.090 SA
ATOM     14  C10 LG1 d5015      39.104  -0.036  55.294  0.00  0.00     0.185 C 
ATOM     15  C9  LG1 d5015      38.161  -0.192  56.451  0.00  0.00     0.239 C 
ATOM     16  O1  LG1 d5015      37.199  -0.952  56.376  0.00  0.00    -0.272 OA
ENDBRANCH   1  10
TORSDOF 1
ENDMDL
MODEL 3
REMARK VINA RESULT:    -4.460      1.664      2.175
REMARK INTER + INTRA:          -4.928
REMARK INTER:                  -4.778
REMARK INTRA:                  -0.151
REMARK UNBOUND:                -0.208
REMARK  1 active torsions:
REMARK  status: ('A' for Active; 'I' for Inactive)
REMARK    1  A    between atoms: C1_1  and  N1_10 
ROOT
ATOM      1  C1  LG1 d5015      37.997   0.819  58.722  0.00  0.00     0.056 A 
ATOM      2  C2  LG1 d5015      38.196  -0.282  59.555  0.00  0.00    -0.033 A 
ATOM      3  C3  LG1 d5015      37.305  -0.537  60.598  0.00  0.00     0.028 A 
ATOM      4  C4  LG1 d5015      36.217   0.308  60.808  0.00  0.00     0.012 A 
ATOM      5  C5  LG1 d5015      36.018   1.411  59.975  0.00  0.00     0.028 A 
ATOM      6  C6  LG1 d5015      36.909   1.665  58.934  0.00  0.00    -0.033 A 
ATOM      7  C7  LG1 d5015      36.670   2.853  58.059  0.00  0.00     0.050 C 
ATOM      8 BR1  LG1 d5015      35.011  -0.037  62.223  0.00  0.00    -0.051 Br
ATOM      9  C8  LG1 d5015      39.353  -1.207  59.353  0.00  0.00     0.050 C 
ENDROOT
BRANCH   1  10
ATOM     10  N1  LG1 d5015      38.913   1.081  57.648  0.00  0.00    -0.265 N 
ATOM     11  C11 LG1 d5015      38.859   0.454  56.403  0.00  0.00     0.148 C 
ATOM     12  S2  LG1 d5015      37.677  -0.527  55.734  0.00  0.00    -0.052 SA
ATOM     13  S1  LG1 d5015      40.261   0.924  55.450  0.00  0.00    -0.090 SA
ATOM     14  C10 LG1 d5015      40.769   2.201  56.601  0.00  0.00     0.185 C 
ATOM     15  C9  LG1 d5015      39.946   2.009  57.842  0.00  0.00     0.239 C 
ATOM     16  O1  LG1 d5015      40.219   2.617  58.874  0.00  0.00    -0.272 OA
ENDBRANCH   1  10
TORSDOF 1
ENDMDL
MODEL 4
REMARK VINA RESULT:    -4.425      1.741      3.098
REMARK INTER + INTRA:          -4.892
REMARK INTER:                  -4.692
REMARK INTRA:                  -0.200
REMARK UNBOUND:                -0.208
REMARK  1 active torsions:
REMARK  status: ('A' for Active; 'I' for Inactive)
REMARK    1  A    between atoms: C1_1  and  N1_10 
ROOT
ATOM      1  C1  LG1 d5015      38.076   0.942  58.553  0.00  0.00     0.056 A 
ATOM      2  C2  LG1 d5015      36.935   1.698  58.817  0.00  0.00    -0.033 A 
ATOM      3  C3  LG1 d5015      36.092   1.343  59.871  0.00  0.00     0.028 A 
ATOM      4  C4  LG1 d5015      36.391   0.234  60.661  0.00  0.00     0.012 A 
ATOM      5  C5  LG1 d5015      37.534  -0.524  60.396  0.00  0.00     0.028 A 
ATOM      6  C6  LG1 d5015      38.375  -0.169  59.342  0.00  0.00    -0.033 A 
ATOM      7  C7  LG1 d5015      39.591  -0.999  59.084  0.00  0.00     0.050 C 
ATOM      8 BR1  LG1 d5015      35.248  -0.247  62.087  0.00  0.00    -0.051 Br
ATOM      9  C8  LG1 d5015      36.589   2.894  57.990  0.00  0.00     0.050 C 
ENDROOT
BRANCH   1  10
ATOM     10  N1  LG1 d5015      38.945   1.307  57.470  0.00  0.00    -0.265 N 
ATOM     11  C11 LG1 d5015      38.853   0.779  56.182  0.00  0.00     0.148 C 
ATOM     12  S2  LG1 d5015      37.664  -0.170  55.481  0.00  0.00    -0.052 SA
ATOM     13  S1  LG1 d5015      40.209   1.352  55.218  0.00  0.00    -0.090 SA
ATOM     14  C10 LG1 d5015      40.739   2.545  56.447  0.00  0.00     0.185 C 
ATOM     15  C9  LG1 d5015      39.968   2.238  57.698  0.00  0.00     0.239 C 
ATOM     16  O1  LG1 d5015      40.270   2.769  58.764  0.00  0.00    -0.272 OA
ENDBRANCH   1  10
TORSDOF 1
ENDMDL
MODEL 5
REMARK VINA RESULT:    -4.253      3.200      3.856
REMARK INTER + INTRA:          -4.709
REMARK INTER:                  -4.501
REMARK INTRA:                  -0.208
REMARK UNBOUND:                -0.208
REMARK  1 active torsions:
REMARK  status: ('A' for Active; 'I' for Inactive)
REMARK    1  A    between atoms: C1_1  and  N1_10 
ROOT
ATOM      1  C1  LG1 d5015      38.074  -1.832  60.160  0.00  0.00     0.056 A 
ATOM      2  C2  LG1 d5015      38.028  -2.273  61.482  0.00  0.00    -0.033 A 
ATOM      3  C3  LG1 d5015      37.277  -1.571  62.425  0.00  0.00     0.028 A 
ATOM      4  C4  LG1 d5015      36.572  -0.429  62.046  0.00  0.00     0.012 A 
ATOM      5  C5  LG1 d5015      36.619   0.013  60.723  0.00  0.00     0.028 A 
ATOM      6  C6  LG1 d5015      37.370  -0.689  59.781  0.00  0.00    -0.033 A 
ATOM      7  C7  LG1 d5015      37.401  -0.192  58.372  0.00  0.00     0.050 C 
ATOM      8 BR1  LG1 d5015      35.556   0.523  63.325  0.00  0.00    -0.051 Br
ATOM      9  C8  LG1 d5015      38.771  -3.494  61.918  0.00  0.00     0.050 C 
ENDROOT
BRANCH   1  10
ATOM     10  N1  LG1 d5015      38.846  -2.555  59.189  0.00  0.00    -0.265 N 
ATOM     11  C11 LG1 d5015      38.355  -3.621  58.436  0.00  0.00     0.148 C 
ATOM     12  S2  LG1 d5015      36.789  -4.190  58.254  0.00  0.00    -0.052 SA
ATOM     13  S1  LG1 d5015      39.668  -4.334  57.507  0.00  0.00    -0.090 SA
ATOM     14  C10 LG1 d5015      40.820  -3.016  57.890  0.00  0.00     0.185 C 
ATOM     15  C9  LG1 d5015      40.185  -2.197  58.977  0.00  0.00     0.239 C 
ATOM     16  O1  LG1 d5015      40.833  -1.343  59.577  0.00  0.00    -0.272 OA
ENDBRANCH   1  10
TORSDOF 1
ENDMDL
