REMARK INTER + INTRA:          -5.629
REMARK INTER:                  -5.466
REMARK INTRA:                  -0.163
REMARK UNBOUND:                -0.167
REMARK  1 active torsions:
REMARK  status: ('A' for Active; 'I' for Inactive)
REMARK    1  A    between atoms: C10_13  and  C11_14 
ROOT
ATOM      1  C1  LG1 d5015      37.734   1.075  57.982  0.00  0.00     0.018 C 
ATOM      2  C2  LG1 d5015      36.835   1.458  59.100  0.00  0.00     0.193 C 
ATOM      3  C3  LG1 d5015      36.765   0.469  60.196  0.00  0.00     0.049 A 
ATOM      4  C4  LG1 d5015      35.871   0.657  61.252  0.00  0.00     0.037 A 
ATOM      5  C5  LG1 d5015      35.854  -0.250  62.312  0.00  0.00     0.012 A 
ATOM      6  C6  LG1 d5015      36.731  -1.335  62.324  0.00  0.00     0.022 A 
ATOM      7  C7  LG1 d5015      37.626  -1.520  61.270  0.00  0.00     0.039 A 
ATOM      8  C8  LG1 d5015      37.633  -0.629  60.197  0.00  0.00     0.083 A 
ATOM      9  O1  LG1 d5015      38.549  -0.860  59.204  0.00  0.00    -0.346 OA
ATOM     10  C9  LG1 d5015      38.134  -0.364  57.927  0.00  0.00     0.218 C 
ATOM     11 BR1  LG1 d5015      34.625  -0.019  63.732  0.00  0.00    -0.051 Br
ATOM     12  O2  LG1 d5015      36.197   2.500  59.130  0.00  0.00    -0.287 OA
ATOM     13  C10 LG1 d5015      38.124   2.006  57.104  0.00  0.00     0.025 C 
ENDROOT
BRANCH  13  14
ATOM     14  C11 LG1 d5015      38.988   1.759  55.988  0.00  0.00    -0.029 A 
ATOM     15  C14 LG1 d5015      38.521   1.358  54.756  0.00  0.00     0.061 A 
ATOM     16  S1  LG1 d5015      39.791   1.145  53.627  0.00  0.00    -0.113 SA
ATOM     17  C13 LG1 d5015      40.970   1.591  54.786  0.00  0.00     0.050 A 
ATOM     18  C12 LG1 d5015      40.406   1.895  56.005  0.00  0.00     0.019 A 
ENDBRANCH  13  14
TORSDOF 1
ENDMDL
