REMARK INTER + INTRA:          -5.433
REMARK INTER:                  -5.267
REMARK INTRA:                  -0.165
REMARK UNBOUND:                -0.105
REMARK  1 active torsions:
REMARK  status: ('A' for Active; 'I' for Inactive)
REMARK    1  A    between atoms: C10_13  and  C11_14 
ROOT
ATOM      1  C1  LG1 d5015      38.911  -0.988  58.867  0.00  0.00     0.018 C 
ATOM      2  C2  LG1 d5015      38.113  -1.453  60.029  0.00  0.00     0.193 C 
ATOM      3  C3  LG1 d5015      37.189  -0.440  60.581  0.00  0.00     0.049 A 
ATOM      4  C4  LG1 d5015      36.463  -0.713  61.742  0.00  0.00     0.037 A 
ATOM      5  C5  LG1 d5015      35.548   0.224  62.223  0.00  0.00     0.012 A 
ATOM      6  C6  LG1 d5015      35.350   1.426  61.542  0.00  0.00     0.022 A 
ATOM      7  C7  LG1 d5015      36.073   1.697  60.379  0.00  0.00     0.039 A 
ATOM      8  C8  LG1 d5015      37.004   0.773  59.906  0.00  0.00     0.083 A 
ATOM      9  O1  LG1 d5015      37.666   1.095  58.751  0.00  0.00    -0.346 OA
ATOM     10  C9  LG1 d5015      38.960   0.490  58.655  0.00  0.00     0.218 C 
ATOM     11 BR1  LG1 d5015      34.585  -0.126  63.812  0.00  0.00    -0.051 Br
ATOM     12  O2  LG1 d5015      38.199  -2.575  60.505  0.00  0.00    -0.287 OA
ATOM     13  C10 LG1 d5015      39.533  -1.887  58.094  0.00  0.00     0.025 C 
ENDROOT
BRANCH  13  14
ATOM     14  C11 LG1 d5015      40.329  -1.563  56.949  0.00  0.00    -0.029 A 
ATOM     15  C14 LG1 d5015      39.813  -1.499  55.674  0.00  0.00     0.061 A 
ATOM     16  S1  LG1 d5015      41.006  -1.087  54.518  0.00  0.00    -0.113 SA
ATOM     17  C13 LG1 d5015      42.219  -0.992  55.723  0.00  0.00     0.050 A 
ATOM     18  C12 LG1 d5015      41.723  -1.269  56.978  0.00  0.00     0.019 A 
ENDBRANCH  13  14
TORSDOF 1
ENDMDL
