REMARK INTER + INTRA:          -5.415
REMARK INTER:                  -5.247
REMARK INTRA:                  -0.168
REMARK UNBOUND:                -0.119
REMARK  1 active torsions:
REMARK  status: ('A' for Active; 'I' for Inactive)
REMARK    1  A    between atoms: C10_13  and  C11_14 
ROOT
ATOM      1  C1  LG1 d5015      38.927  -0.992  58.802  0.00  0.00     0.018 C 
ATOM      2  C2  LG1 d5015      38.137  -1.442  59.976  0.00  0.00     0.193 C 
ATOM      3  C3  LG1 d5015      37.223  -0.420  60.527  0.00  0.00     0.049 A 
ATOM      4  C4  LG1 d5015      36.507  -0.680  61.698  0.00  0.00     0.037 A 
ATOM      5  C5  LG1 d5015      35.601   0.267  62.178  0.00  0.00     0.012 A 
ATOM      6  C6  LG1 d5015      35.401   1.463  61.488  0.00  0.00     0.022 A 
ATOM      7  C7  LG1 d5015      36.115   1.720  60.316  0.00  0.00     0.039 A 
ATOM      8  C8  LG1 d5015      37.038   0.787  59.843  0.00  0.00     0.083 A 
ATOM      9  O1  LG1 d5015      37.690   1.096  58.679  0.00  0.00    -0.346 OA
ATOM     10  C9  LG1 d5015      38.981   0.484  58.577  0.00  0.00     0.218 C 
ATOM     11 BR1  LG1 d5015      34.651  -0.065  63.779  0.00  0.00    -0.051 Br
ATOM     12  O2  LG1 d5015      38.222  -2.561  60.462  0.00  0.00    -0.287 OA
ATOM     13  C10 LG1 d5015      39.537  -1.901  58.032  0.00  0.00     0.025 C 
ENDROOT
BRANCH  13  14
ATOM     14  C11 LG1 d5015      40.324  -1.591  56.877  0.00  0.00    -0.029 A 
ATOM     15  C14 LG1 d5015      39.794  -1.520  55.609  0.00  0.00     0.061 A 
ATOM     16  S1  LG1 d5015      40.979  -1.128  54.438  0.00  0.00    -0.113 SA
ATOM     17  C13 LG1 d5015      42.208  -1.052  55.626  0.00  0.00     0.050 A 
ATOM     18  C12 LG1 d5015      41.723  -1.319  56.888  0.00  0.00     0.019 A 
ENDBRANCH  13  14
TORSDOF 1
ENDMDL
