REMARK INTER + INTRA:          -5.447
REMARK INTER:                  -5.278
REMARK INTRA:                  -0.169
REMARK UNBOUND:                -0.119
REMARK  1 active torsions:
REMARK  status: ('A' for Active; 'I' for Inactive)
REMARK    1  A    between atoms: C10_13  and  C11_14 
ROOT
ATOM      1  C1  LG1 d5015      38.826  -2.582  60.805  0.00  0.00     0.018 C 
ATOM      2  C2  LG1 d5015      38.787  -1.668  59.636  0.00  0.00     0.193 C 
ATOM      3  C3  LG1 d5015      37.828  -0.550  59.765  0.00  0.00     0.049 A 
ATOM      4  C4  LG1 d5015      37.613   0.316  58.691  0.00  0.00     0.037 A 
ATOM      5  C5  LG1 d5015      36.752   1.404  58.842  0.00  0.00     0.012 A 
ATOM      6  C6  LG1 d5015      36.116   1.634  60.062  0.00  0.00     0.022 A 
ATOM      7  C7  LG1 d5015      36.334   0.770  61.137  0.00  0.00     0.039 A 
ATOM      8  C8  LG1 d5015      37.177  -0.332  60.985  0.00  0.00     0.083 A 
ATOM      9  O1  LG1 d5015      37.360  -1.128  62.085  0.00  0.00    -0.346 OA
ATOM     10  C9  LG1 d5015      37.675  -2.484  61.752  0.00  0.00     0.218 C 
ATOM     11 BR1  LG1 d5015      36.432   2.562  57.381  0.00  0.00    -0.051 Br
ATOM     12  O2  LG1 d5015      39.479  -1.811  58.639  0.00  0.00    -0.287 OA
ATOM     13  C10 LG1 d5015      39.856  -3.425  60.945  0.00  0.00     0.025 C 
ENDROOT
BRANCH  13  14
ATOM     14  C11 LG1 d5015      40.007  -4.351  62.027  0.00  0.00    -0.029 A 
ATOM     15  C14 LG1 d5015      39.574  -5.656  61.960  0.00  0.00     0.061 A 
ATOM     16  S1  LG1 d5015      39.896  -6.515  63.405  0.00  0.00    -0.113 SA
ATOM     17  C13 LG1 d5015      40.615  -5.140  64.127  0.00  0.00     0.050 A 
ATOM     18  C12 LG1 d5015      40.611  -4.051  63.283  0.00  0.00     0.019 A 
ENDBRANCH  13  14
TORSDOF 1
ENDMDL
