REMARK INTER + INTRA:          -5.370
REMARK INTER:                  -5.202
REMARK INTRA:                  -0.169
REMARK UNBOUND:                -0.169
REMARK  1 active torsions:
REMARK  status: ('A' for Active; 'I' for Inactive)
REMARK    1  A    between atoms: C10_13  and  C11_14 
ROOT
ATOM      1  C1  LG1 d5015      38.868  -2.605  60.797  0.00  0.00     0.018 C 
ATOM      2  C2  LG1 d5015      38.861  -1.663  59.650  0.00  0.00     0.193 C 
ATOM      3  C3  LG1 d5015      37.894  -0.552  59.775  0.00  0.00     0.049 A 
ATOM      4  C4  LG1 d5015      37.710   0.339  58.716  0.00  0.00     0.037 A 
ATOM      5  C5  LG1 d5015      36.841   1.420  58.865  0.00  0.00     0.012 A 
ATOM      6  C6  LG1 d5015      36.165   1.618  60.070  0.00  0.00     0.022 A 
ATOM      7  C7  LG1 d5015      36.353   0.730  61.129  0.00  0.00     0.039 A 
ATOM      8  C8  LG1 d5015      37.204  -0.365  60.979  0.00  0.00     0.083 A 
ATOM      9  O1  LG1 d5015      37.355  -1.187  62.064  0.00  0.00    -0.346 OA
ATOM     10  C9  LG1 d5015      37.686  -2.534  61.709  0.00  0.00     0.218 C 
ATOM     11 BR1  LG1 d5015      36.563   2.613  57.423  0.00  0.00    -0.051 Br
ATOM     12  O2  LG1 d5015      39.586  -1.780  58.672  0.00  0.00    -0.287 OA
ATOM     13  C10 LG1 d5015      39.896  -3.448  60.949  0.00  0.00     0.025 C 
ENDROOT
BRANCH  13  14
ATOM     14  C11 LG1 d5015      40.016  -4.399  62.013  0.00  0.00    -0.029 A 
ATOM     15  C14 LG1 d5015      40.637  -4.111  63.207  0.00  0.00     0.061 A 
ATOM     16  S1  LG1 d5015      40.622  -5.446  64.278  0.00  0.00    -0.113 SA
ATOM     17  C13 LG1 d5015      39.781  -6.416  63.146  0.00  0.00     0.050 A 
ATOM     18  C12 LG1 d5015      39.518  -5.734  61.978  0.00  0.00     0.019 A 
ENDBRANCH  13  14
TORSDOF 1
ENDMDL
