@<TRIPOS>MOLECULE
ZINC00001453
 32 34 0 0 0
SMALL
USER_CHARGES

@<TRIPOS>ATOM
      1 C1         -0.0555    4.2416    0.0249 C.3     1  <0>11      -0.1024
      2 C2          1.1539    3.5694    0.0080 C.3     1  <0>11      -0.0950
      3 C3          1.1800    2.1903    0.0009 C.3     1  <0>11      -0.0724
      4 C4         -0.0179    1.4724    0.0101 C.3     1  <0>11      -0.0115
      5 C5         -1.2350    2.1574    0.0213 C.3     1  <0>11      -0.0764
      6 C6         -1.2462    3.5367    0.0342 C.3     1  <0>11      -0.0982
      7 C7          0.0021   -0.0041    0.0020 C.3     1  <0>11       0.1002
      8 C8         -1.1817   -0.6740    0.0153 C.3     1  <0>11       0.0290
      9 C9         -1.1821   -2.0886    0.0026 C.2     1  <0>11       0.0744
     10 C10         0.1293   -2.7669   -0.0141 C.3     1  <0>11       0.0427
     11 C11         0.2261   -4.1574   -0.0234 C.3     1  <0>11      -0.0761
     12 C12         1.4688   -4.7522   -0.0394 C.3     1  <0>11      -0.0916
     13 C13         2.6171   -3.9738   -0.0467 C.3     1  <0>11      -0.0740
     14 C14         2.5342   -2.5977   -0.0366 C.3     1  <0>11      -0.0089
     15 C15         1.2905   -1.9781   -0.0209 C.3     1  <0>11       0.1064
     16 C16         3.7911   -1.7662   -0.0443 C.3     1  <0>11       0.0708
     17 C17         3.8311   -0.9049    1.1916 C.3     1  <0>11       0.0676
     18 H1         -0.0702    5.3215    0.0311 H       1  <0>11       0.1222
     19 H2          2.0795    4.1258    0.0009 H       1  <0>11       0.1233
     20 H3          2.1247    1.6669   -0.0115 H       1  <0>11       0.1427
     21 H4         -2.1651    1.6085    0.0240 H       1  <0>11       0.1352
     22 H5         -2.1866    4.0677    0.0473 H       1  <0>11       0.1201
     23 H6         -2.1145   -0.1299    0.0314 H       1  <0>11       0.1292
     24 H7         -0.6671   -4.7644   -0.0178 H       1  <0>11       0.1387
     25 H8          1.5493   -5.8292   -0.0467 H       1  <0>11       0.1195
     26 H9          3.5860   -4.4507   -0.0592 H       1  <0>11       0.1414
     27 H10         4.6610   -2.4228   -0.0579 H       1  <0>11       0.0932
     28 H11         3.8013   -1.1313   -0.9303 H       1  <0>11       0.0919
     29 O1         -2.2241   -2.7227    0.0092 O.2     1  <0>11      -0.4842
     30 O2          1.1873   -0.6328   -0.0127 O.2     1  <0>11      -0.4682
     31 O3          3.3024   -1.2841    2.2097 O.2     1  <0>11      -0.5508
     32 O4          4.4540    0.2838    1.1613 O.2     1  <0>11      -0.6387
@<TRIPOS>UNITY_ATOM_ATTR
31 1
charge -1
@<TRIPOS>BOND
     1     1     6   ar
     2     1     2   ar
     3     1    18    1
     4     2     3   ar
     5     2    19    1
     6     3     4   ar
     7     3    20    1
     8     4     5   ar
     9     4     7    1
    10     5     6   ar
    11     5    21    1
    12     6    22    1
    13     7    30   ar
    14     7     8   ar
    15     8     9   ar
    16     8    23    1
    17     9    29    2
    18     9    10   ar
    19    10    15   ar
    20    10    11   ar
    21    11    12   ar
    22    11    24    1
    23    12    13   ar
    24    12    25    1
    25    13    14   ar
    26    13    26    1
    27    14    15   ar
    28    14    16    1
    29    15    30   ar
    30    16    17    1
    31    16    27    1
    32    16    28    1
    33    17    31    1
    34    17    32    2
