REMARK  4 active torsions:
REMARK  status: ('A' for Active; 'I' for Inactive)
REMARK    1  A    between atoms: C4_4  and  N1_25 
REMARK    2  A    between atoms: C8_8  and  C16_16 
REMARK    3  A    between atoms: C9_9  and  C10_10 
REMARK    4  A    between atoms: C16_16  and  C17_17 
ROOT
ATOM      1  C7  <0> d  11       2.565  -0.301  -2.238  0.00  0.00     0.271 A 
ATOM      2  C8  <0> d  11       2.870   0.835  -1.461  0.00  0.00     0.044 A 
ATOM      3  C9  <0> d  11       3.675   1.648  -2.202  0.00  0.00     0.070 A 
ATOM      4  H1  <0> d  11       4.424   1.395  -4.145  0.00  0.00     0.187 HD
ATOM      5  N1  <0> d  11       3.185  -0.170  -3.427  0.00  0.00    -0.252 N 
ATOM      6  N2  <0> d  11       3.887   1.042  -3.419  0.00  0.00    -0.294 N 
ATOM      7  O1  <0> d  11       1.863  -1.236  -1.894  0.00  0.00    -0.266 OA
ENDROOT
BRANCH   5   8
ATOM      8  C4  <0> d  11       3.135  -1.129  -4.534  0.00  0.00     0.115 C 
ATOM      9  C3  <0> d  11       1.952  -0.794  -5.447  0.00  0.00     0.055 C 
ATOM     10  C2  <0> d  11       1.941  -1.760  -6.634  0.00  0.00     0.236 C 
ATOM     11  N3  <0> d  11       3.207  -1.614  -7.384  0.00  0.00    -0.075 N 
ATOM     12  C1  <0> d  11       3.173  -2.454  -8.599  0.00  0.00     0.269 C 
ATOM     13  C6  <0> d  11       4.350  -2.005  -6.532  0.00  0.00     0.236 C 
ATOM     14  H26 <0> d  11       3.319  -0.631  -7.660  0.00  0.00     0.279 HD
ATOM     15  C5  <0> d  11       4.433  -1.046  -5.342  0.00  0.00     0.055 C 
ENDBRANCH   5   8
BRANCH   3  16
ATOM     16  C10 <0> d  11       4.226   2.950  -1.772  0.00  0.00    -0.007 A 
ATOM     17  C15 <0> d  11       3.933   3.450  -0.502  0.00  0.00     0.014 A 
ATOM     18  C14 <0> d  11       4.451   4.666  -0.107  0.00  0.00     0.001 A 
ATOM     19  C13 <0> d  11       5.258   5.390  -0.967  0.00  0.00     0.000 A 
ATOM     20  C12 <0> d  11       5.553   4.900  -2.227  0.00  0.00     0.001 A 
ATOM     21  C11 <0> d  11       5.046   3.682  -2.632  0.00  0.00     0.014 A 
ENDBRANCH   3  16
BRANCH   2  22
ATOM     22  C16 <0> d  11       2.387   1.106  -0.059  0.00  0.00     0.085 C 
BRANCH  22  23
ATOM     23  C17 <0> d  11       1.514  -0.034   0.400  0.00  0.00    -0.054 A 
ATOM     24  C22 <0> d  11       1.865  -0.767   1.518  0.00  0.00     0.007 A 
ATOM     25  C21 <0> d  11       1.064  -1.812   1.939  0.00  0.00     0.001 A 
ATOM     26  C20 <0> d  11      -0.088  -2.123   1.243  0.00  0.00     0.000 A 
ATOM     27  C19 <0> d  11      -0.442  -1.387   0.127  0.00  0.00     0.001 A 
ATOM     28  C18 <0> d  11       0.361  -0.345  -0.297  0.00  0.00     0.007 A 
ENDBRANCH  22  23
ENDBRANCH   2  22
TORSDOF 4
