REMARK  2 active torsions:
REMARK  status: ('A' for Active; 'I' for Inactive)
REMARK    1  A    between atoms: C1_1  and  N1_15 
REMARK    2  A    between atoms: C7_9  and  C4_4 
ROOT
ATOM      1  C1  LG1 d5015      22.984   9.414  60.764  0.00  0.00     0.141 A 
ATOM      2  C2  LG1 d5015      23.141   8.614  59.632  0.00  0.00     0.187 A 
ATOM      3  C3  LG1 d5015      23.428   9.199  58.399  0.00  0.00     0.175 A 
ATOM      4  C4  LG1 d5015      23.557  10.584  58.297  0.00  0.00     0.131 A 
ATOM      5  C5  LG1 d5015      23.399  11.384  59.428  0.00  0.00     0.175 A 
ATOM      6  C6  LG1 d5015      23.113  10.799  60.661  0.00  0.00     0.187 A 
ATOM      7  F1  LG1 d5015      22.964  11.581  61.740  0.00  0.00    -0.200 F 
ATOM      8  F2  LG1 d5015      23.521  12.717  59.339  0.00  0.00    -0.202 F 
ATOM      9  F6  LG1 d5015      23.578   8.420  57.317  0.00  0.00    -0.202 F 
ATOM     10  F7  LG1 d5015      23.020   7.281  59.716  0.00  0.00    -0.200 F 
ENDROOT
BRANCH   1  11
ATOM     11  N1  LG1 d5015      22.699   8.835  61.987  0.00  0.00    -0.232 N 
ATOM     12  N2  LG1 d5015      23.137   7.593  62.256  0.00  0.00    -0.172 NA
ATOM     13  C10 LG1 d5015      22.683   7.373  63.492  0.00  0.00     0.053 A 
ATOM     14  C9  LG1 d5015      21.960   8.465  64.009  0.00  0.00     0.055 A 
ATOM     15  C11 LG1 d5015      22.965   6.089  64.157  0.00  0.00     0.072 C 
ATOM     16  C8  LG1 d5015      21.989   9.401  63.004  0.00  0.00     0.035 A 
ATOM     17  C12 LG1 d5015      21.410  10.757  62.940  0.00  0.00     0.070 C 
ENDBRANCH   1  11
BRANCH   4  18
ATOM     18  C7  LG1 d5015      23.863  11.209  56.977  0.00  0.00     0.423 C 
ATOM     19  F4  LG1 d5015      23.990  10.306  55.961  0.00  0.00    -0.166 F 
ATOM     20  F3  LG1 d5015      25.027  11.923  56.967  0.00  0.00    -0.166 F 
ATOM     21  F5  LG1 d5015      22.895  12.082  56.573  0.00  0.00    -0.166 F 
ENDBRANCH   4  18
TORSDOF 2
