REMARK INTER + INTRA:          -7.930
REMARK INTER:                  -7.796
REMARK INTRA:                  -0.134
REMARK UNBOUND:                -0.150
REMARK  1 active torsions:
REMARK  status: ('A' for Active; 'I' for Inactive)
REMARK    1  A    between atoms: C7_7  and  C4_4 
ROOT
ATOM      1  C1  LG1 d5015      22.180  25.922  50.477  0.00  0.00    -0.004 C 
ATOM      2  C2  LG1 d5015      21.382  25.879  51.785  0.00  0.00    -0.001 C 
ATOM      3  C3  LG1 d5015      20.011  25.119  51.643  0.00  0.00    -0.030 C 
ATOM      4  C4  LG1 d5015      19.543  25.201  53.135  0.00  0.00     0.063 C 
ATOM      5  C5  LG1 d5015      20.845  24.975  53.982  0.00  0.00     0.013 C 
ATOM      6  C6  LG1 d5015      22.058  25.222  53.013  0.00  0.00     0.006 C 
ATOM      7  C9  LG1 d5015      20.173  23.615  51.223  0.00  0.00     0.016 C 
ATOM      8  C10 LG1 d5015      19.178  25.934  50.629  0.00  0.00     0.011 C 
ATOM      9  C11 LG1 d5015      19.914  26.053  49.266  0.00  0.00     0.007 C 
ATOM     10  C12 LG1 d5015      21.323  26.685  49.413  0.00  0.00     0.002 C 
ATOM     11  C13 LG1 d5015      22.046  26.813  48.022  0.00  0.00    -0.016 C 
ATOM     12  C14 LG1 d5015      23.478  27.445  48.255  0.00  0.00    -0.068 C 
ATOM     13  C15 LG1 d5015      23.968  28.437  47.534  0.00  0.00     0.053 C 
ATOM     14  C16 LG1 d5015      23.265  28.953  46.369  0.00  0.00     0.149 C 
ATOM     15  C17 LG1 d5015      21.978  28.285  45.894  0.00  0.00     0.084 C 
ATOM     16  C18 LG1 d5015      21.196  27.744  47.117  0.00  0.00     0.022 C 
ATOM     17  O2  LG1 d5015      23.744  29.893  45.710  0.00  0.00    -0.293 OA
ATOM     18  C19 LG1 d5015      24.319  26.890  49.400  0.00  0.00     0.035 C 
ATOM     19  C20 LG1 d5015      23.499  26.706  50.692  0.00  0.00     0.010 C 
ATOM     20  C21 LG1 d5015      22.285  25.415  47.333  0.00  0.00     0.020 C 
ENDROOT
BRANCH   4  21
ATOM     21  C7  LG1 d5015      18.364  24.282  53.495  0.00  0.00     0.128 C 
ATOM     22  O1  LG1 d5015      18.564  23.215  54.033  0.00  0.00    -0.298 OA
ATOM     23  C8  LG1 d5015      16.974  24.718  53.184  0.00  0.00     0.091 C 
ENDBRANCH   4  21
TORSDOF 1
ENDMDL
