REMARK INTER + INTRA:          -7.919
REMARK INTER:                  -7.729
REMARK INTRA:                  -0.190
REMARK UNBOUND:                -0.140
REMARK  1 active torsions:
REMARK  status: ('A' for Active; 'I' for Inactive)
REMARK    1  A    between atoms: C7_7  and  C4_4 
ROOT
ATOM      1  C1  LG1 d5015      21.720  25.798  50.784  0.00  0.00    -0.004 C 
ATOM      2  C2  LG1 d5015      21.385  26.514  49.471  0.00  0.00    -0.001 C 
ATOM      3  C3  LG1 d5015      22.309  27.758  49.197  0.00  0.00    -0.030 C 
ATOM      4  C4  LG1 d5015      21.750  28.160  47.791  0.00  0.00     0.063 C 
ATOM      5  C5  LG1 d5015      21.489  26.799  47.055  0.00  0.00     0.013 C 
ATOM      6  C6  LG1 d5015      21.461  25.687  48.165  0.00  0.00     0.006 C 
ATOM      7  C9  LG1 d5015      23.830  27.390  49.075  0.00  0.00     0.016 C 
ATOM      8  C10 LG1 d5015      22.029  28.755  50.344  0.00  0.00     0.011 C 
ATOM      9  C11 LG1 d5015      22.321  28.114  51.729  0.00  0.00     0.007 C 
ATOM     10  C12 LG1 d5015      21.508  26.812  51.956  0.00  0.00     0.002 C 
ATOM     11  C13 LG1 d5015      21.804  26.186  53.368  0.00  0.00    -0.016 C 
ATOM     12  C14 LG1 d5015      20.957  24.857  53.518  0.00  0.00    -0.068 C 
ATOM     13  C15 LG1 d5015      20.241  24.561  54.588  0.00  0.00     0.053 C 
ATOM     14  C16 LG1 d5015      20.275  25.391  55.783  0.00  0.00     0.149 C 
ATOM     15  C17 LG1 d5015      21.225  26.582  55.860  0.00  0.00     0.084 C 
ATOM     16  C18 LG1 d5015      21.379  27.211  54.453  0.00  0.00     0.022 C 
ATOM     17  O2  LG1 d5015      19.586  25.094  56.775  0.00  0.00    -0.293 OA
ATOM     18  C19 LG1 d5015      20.949  23.887  52.342  0.00  0.00     0.035 C 
ATOM     19  C20 LG1 d5015      20.752  24.605  50.993  0.00  0.00     0.010 C 
ATOM     20  C21 LG1 d5015      23.316  25.770  53.542  0.00  0.00     0.020 C 
ENDROOT
BRANCH   4  21
ATOM     21  C7  LG1 d5015      22.616  29.166  47.014  0.00  0.00     0.128 C 
ATOM     22  O1  LG1 d5015      22.824  30.270  47.470  0.00  0.00    -0.298 OA
ATOM     23  C8  LG1 d5015      23.201  28.771  45.703  0.00  0.00     0.091 C 
ENDBRANCH   4  21
TORSDOF 1
ENDMDL
