REMARK INTER + INTRA:          -6.901
REMARK INTER:                  -6.750
REMARK INTRA:                  -0.150
REMARK UNBOUND:                -0.150
REMARK  1 active torsions:
REMARK  status: ('A' for Active; 'I' for Inactive)
REMARK    1  A    between atoms: C7_7  and  C4_4 
ROOT
ATOM      1  C1  LG1 d5015      20.529  26.938  51.339  0.00  0.00    -0.004 C 
ATOM      2  C2  LG1 d5015      20.498  26.678  52.849  0.00  0.00    -0.001 C 
ATOM      3  C3  LG1 d5015      21.812  27.143  53.579  0.00  0.00    -0.030 C 
ATOM      4  C4  LG1 d5015      21.392  26.811  55.050  0.00  0.00     0.063 C 
ATOM      5  C5  LG1 d5015      19.879  27.217  55.142  0.00  0.00     0.013 C 
ATOM      6  C6  LG1 d5015      19.356  27.331  53.664  0.00  0.00     0.006 C 
ATOM      7  C9  LG1 d5015      22.089  28.682  53.444  0.00  0.00     0.016 C 
ATOM      8  C10 LG1 d5015      22.952  26.281  52.992  0.00  0.00     0.011 C 
ATOM      9  C11 LG1 d5015      23.054  26.459  51.452  0.00  0.00     0.007 C 
ATOM     10  C12 LG1 d5015      21.721  26.126  50.733  0.00  0.00     0.002 C 
ATOM     11  C13 LG1 d5015      21.848  26.297  49.174  0.00  0.00    -0.016 C 
ATOM     12  C14 LG1 d5015      20.450  25.959  48.514  0.00  0.00    -0.068 C 
ATOM     13  C15 LG1 d5015      20.306  25.171  47.464  0.00  0.00     0.053 C 
ATOM     14  C16 LG1 d5015      21.454  24.642  46.744  0.00  0.00     0.149 C 
ATOM     15  C17 LG1 d5015      22.865  25.070  47.134  0.00  0.00     0.084 C 
ATOM     16  C18 LG1 d5015      22.929  25.306  48.663  0.00  0.00     0.022 C 
ATOM     17  O2  LG1 d5015      21.292  23.896  45.761  0.00  0.00    -0.293 OA
ATOM     18  C19 LG1 d5015      19.202  26.556  49.156  0.00  0.00     0.035 C 
ATOM     19  C20 LG1 d5015      19.216  26.430  50.691  0.00  0.00     0.010 C 
ATOM     20  C21 LG1 d5015      22.191  27.777  48.753  0.00  0.00     0.020 C 
ENDROOT
BRANCH   4  21
ATOM     21  C7  LG1 d5015      22.297  27.420  56.134  0.00  0.00     0.128 C 
ATOM     22  O1  LG1 d5015      21.893  28.330  56.826  0.00  0.00    -0.298 OA
ATOM     23  C8  LG1 d5015      23.670  26.877  56.333  0.00  0.00     0.091 C 
ENDBRANCH   4  21
TORSDOF 1
ENDMDL
