REMARK INTER + INTRA:          -7.874
REMARK INTER:                  -7.670
REMARK INTRA:                  -0.204
REMARK UNBOUND:                -0.143
REMARK  1 active torsions:
REMARK  status: ('A' for Active; 'I' for Inactive)
REMARK    1  A    between atoms: C7_7  and  C4_4 
ROOT
ATOM      1  C1  LG1 d5015      21.640  26.228  52.020  0.00  0.00    -0.004 C 
ATOM      2  C2  LG1 d5015      20.447  26.064  52.968  0.00  0.00    -0.001 C 
ATOM      3  C3  LG1 d5015      19.920  24.582  53.040  0.00  0.00    -0.030 C 
ATOM      4  C4  LG1 d5015      18.808  24.782  54.123  0.00  0.00     0.063 C 
ATOM      5  C5  LG1 d5015      19.428  25.782  55.161  0.00  0.00     0.013 C 
ATOM      6  C6  LG1 d5015      20.647  26.470  54.448  0.00  0.00     0.006 C 
ATOM      7  C9  LG1 d5015      20.993  23.564  53.567  0.00  0.00     0.016 C 
ATOM      8  C10 LG1 d5015      19.423  24.239  51.618  0.00  0.00     0.011 C 
ATOM      9  C11 LG1 d5015      20.562  24.395  50.572  0.00  0.00     0.007 C 
ATOM     10  C12 LG1 d5015      21.176  25.819  50.583  0.00  0.00     0.002 C 
ATOM     11  C13 LG1 d5015      22.316  25.964  49.508  0.00  0.00    -0.016 C 
ATOM     12  C14 LG1 d5015      22.905  27.431  49.592  0.00  0.00    -0.068 C 
ATOM     13  C15 LG1 d5015      23.115  28.198  48.537  0.00  0.00     0.053 C 
ATOM     14  C16 LG1 d5015      22.934  27.699  47.182  0.00  0.00     0.149 C 
ATOM     15  C17 LG1 d5015      22.587  26.232  46.948  0.00  0.00     0.084 C 
ATOM     16  C18 LG1 d5015      21.695  25.721  48.107  0.00  0.00     0.022 C 
ATOM     17  O2  LG1 d5015      23.132  28.443  46.205  0.00  0.00    -0.293 OA
ATOM     18  C19 LG1 d5015      23.212  27.992  50.976  0.00  0.00     0.035 C 
ATOM     19  C20 LG1 d5015      22.081  27.714  51.985  0.00  0.00     0.010 C 
ATOM     20  C21 LG1 d5015      23.525  24.986  49.771  0.00  0.00     0.020 C 
ENDROOT
BRANCH   4  21
ATOM     21  C7  LG1 d5015      18.249  23.482  54.724  0.00  0.00     0.128 C 
ATOM     22  O1  LG1 d5015      17.582  22.732  54.042  0.00  0.00    -0.298 OA
ATOM     23  C8  LG1 d5015      18.539  23.146  56.146  0.00  0.00     0.091 C 
ENDBRANCH   4  21
TORSDOF 1
ENDMDL
