REMARK INTER + INTRA:          -7.861
REMARK INTER:                  -7.665
REMARK INTRA:                  -0.196
REMARK UNBOUND:                -0.202
REMARK  1 active torsions:
REMARK  status: ('A' for Active; 'I' for Inactive)
REMARK    1  A    between atoms: C7_7  and  C4_4 
ROOT
ATOM      1  C1  LG1 d5015      21.555  26.216  51.981  0.00  0.00    -0.004 C 
ATOM      2  C2  LG1 d5015      20.355  26.028  52.915  0.00  0.00    -0.001 C 
ATOM      3  C3  LG1 d5015      19.876  24.531  53.005  0.00  0.00    -0.030 C 
ATOM      4  C4  LG1 d5015      18.743  24.712  54.069  0.00  0.00     0.063 C 
ATOM      5  C5  LG1 d5015      19.314  25.749  55.099  0.00  0.00     0.013 C 
ATOM      6  C6  LG1 d5015      20.521  26.465  54.391  0.00  0.00     0.006 C 
ATOM      7  C9  LG1 d5015      20.974  23.558  53.563  0.00  0.00     0.016 C 
ATOM      8  C10 LG1 d5015      19.410  24.149  51.583  0.00  0.00     0.011 C 
ATOM      9  C11 LG1 d5015      20.558  24.326  50.550  0.00  0.00     0.007 C 
ATOM     10  C12 LG1 d5015      21.125  25.769  50.545  0.00  0.00     0.002 C 
ATOM     11  C13 LG1 d5015      22.275  25.933  49.483  0.00  0.00    -0.016 C 
ATOM     12  C14 LG1 d5015      22.814  27.420  49.550  0.00  0.00    -0.068 C 
ATOM     13  C15 LG1 d5015      23.013  28.176  48.486  0.00  0.00     0.053 C 
ATOM     14  C16 LG1 d5015      22.868  27.650  47.137  0.00  0.00     0.149 C 
ATOM     15  C17 LG1 d5015      22.572  26.168  46.922  0.00  0.00     0.084 C 
ATOM     16  C18 LG1 d5015      21.681  25.647  48.078  0.00  0.00     0.022 C 
ATOM     17  O2  LG1 d5015      23.055  28.383  46.151  0.00  0.00    -0.293 OA
ATOM     18  C19 LG1 d5015      23.083  28.014  50.928  0.00  0.00     0.035 C 
ATOM     19  C20 LG1 d5015      21.948  27.715  51.927  0.00  0.00     0.010 C 
ATOM     20  C21 LG1 d5015      23.511  25.000  49.779  0.00  0.00     0.020 C 
ENDROOT
BRANCH   4  21
ATOM     21  C7  LG1 d5015      18.218  23.404  54.684  0.00  0.00     0.128 C 
ATOM     22  O1  LG1 d5015      17.546  22.644  54.020  0.00  0.00    -0.298 OA
ATOM     23  C8  LG1 d5015      18.548  23.074  56.099  0.00  0.00     0.091 C 
ENDBRANCH   4  21
TORSDOF 1
ENDMDL
