REMARK INTER + INTRA:          -7.945
REMARK INTER:                  -7.805
REMARK INTRA:                  -0.140
REMARK UNBOUND:                -0.140
REMARK  1 active torsions:
REMARK  status: ('A' for Active; 'I' for Inactive)
REMARK    1  A    between atoms: C7_7  and  C4_4 
ROOT
ATOM      1  C1  LG1 d5015      22.195  25.933  50.472  0.00  0.00    -0.004 C 
ATOM      2  C2  LG1 d5015      21.388  25.876  51.773  0.00  0.00    -0.001 C 
ATOM      3  C3  LG1 d5015      20.028  25.098  51.617  0.00  0.00    -0.030 C 
ATOM      4  C4  LG1 d5015      19.546  25.169  53.105  0.00  0.00     0.063 C 
ATOM      5  C5  LG1 d5015      20.844  24.958  53.962  0.00  0.00     0.013 C 
ATOM      6  C6  LG1 d5015      22.061  25.224  53.005  0.00  0.00     0.006 C 
ATOM      7  C9  LG1 d5015      20.213  23.598  51.194  0.00  0.00     0.016 C 
ATOM      8  C10 LG1 d5015      19.193  25.905  50.599  0.00  0.00     0.011 C 
ATOM      9  C11 LG1 d5015      19.938  26.039  49.242  0.00  0.00     0.007 C 
ATOM     10  C12 LG1 d5015      21.337  26.688  49.403  0.00  0.00     0.002 C 
ATOM     11  C13 LG1 d5015      22.071  26.830  48.019  0.00  0.00    -0.016 C 
ATOM     12  C14 LG1 d5015      23.492  27.481  48.266  0.00  0.00    -0.068 C 
ATOM     13  C15 LG1 d5015      23.975  28.482  47.552  0.00  0.00     0.053 C 
ATOM     14  C16 LG1 d5015      23.275  28.992  46.383  0.00  0.00     0.149 C 
ATOM     15  C17 LG1 d5015      22.001  28.309  45.895  0.00  0.00     0.084 C 
ATOM     16  C18 LG1 d5015      21.216  27.753  47.109  0.00  0.00     0.022 C 
ATOM     17  O2  LG1 d5015      23.746  29.941  45.731  0.00  0.00    -0.293 OA
ATOM     18  C19 LG1 d5015      24.330  26.934  49.416  0.00  0.00     0.035 C 
ATOM     19  C20 LG1 d5015      23.502  26.735  50.700  0.00  0.00     0.010 C 
ATOM     20  C21 LG1 d5015      22.334  25.438  47.327  0.00  0.00     0.020 C 
ENDROOT
BRANCH   4  21
ATOM     21  C7  LG1 d5015      18.376  24.233  53.452  0.00  0.00     0.128 C 
ATOM     22  O1  LG1 d5015      18.584  23.181  54.017  0.00  0.00    -0.298 OA
ATOM     23  C8  LG1 d5015      16.987  24.633  53.095  0.00  0.00     0.091 C 
ENDBRANCH   4  21
TORSDOF 1
ENDMDL
