REMARK INTER + INTRA:          -7.971
REMARK INTER:                  -7.786
REMARK INTRA:                  -0.185
REMARK UNBOUND:                -0.150
REMARK  1 active torsions:
REMARK  status: ('A' for Active; 'I' for Inactive)
REMARK    1  A    between atoms: C7_7  and  C4_4 
ROOT
ATOM      1  C1  LG1 d5015      21.173  25.805  52.329  0.00  0.00    -0.004 C 
ATOM      2  C2  LG1 d5015      22.132  25.795  51.134  0.00  0.00    -0.001 C 
ATOM      3  C3  LG1 d5015      21.509  26.443  49.841  0.00  0.00    -0.030 C 
ATOM      4  C4  LG1 d5015      22.757  26.335  48.902  0.00  0.00     0.063 C 
ATOM      5  C5  LG1 d5015      23.985  26.671  49.819  0.00  0.00     0.013 C 
ATOM      6  C6  LG1 d5015      23.493  26.514  51.303  0.00  0.00     0.006 C 
ATOM      7  C9  LG1 d5015      21.117  27.951  50.027  0.00  0.00     0.016 C 
ATOM      8  C10 LG1 d5015      20.302  25.556  49.463  0.00  0.00     0.011 C 
ATOM      9  C11 LG1 d5015      19.273  25.484  50.625  0.00  0.00     0.007 C 
ATOM     10  C12 LG1 d5015      19.909  24.968  51.942  0.00  0.00     0.002 C 
ATOM     11  C13 LG1 d5015      18.850  24.887  53.102  0.00  0.00    -0.016 C 
ATOM     12  C14 LG1 d5015      19.574  24.373  54.412  0.00  0.00    -0.068 C 
ATOM     13  C15 LG1 d5015      19.096  23.417  55.188  0.00  0.00     0.053 C 
ATOM     14  C16 LG1 d5015      17.781  22.837  54.961  0.00  0.00     0.149 C 
ATOM     15  C17 LG1 d5015      16.876  23.397  53.867  0.00  0.00     0.084 C 
ATOM     16  C18 LG1 d5015      17.743  23.884  52.680  0.00  0.00     0.022 C 
ATOM     17  O2  LG1 d5015      17.355  21.933  55.702  0.00  0.00    -0.293 OA
ATOM     18  C19 LG1 d5015      20.917  25.001  54.771  0.00  0.00     0.035 C 
ATOM     19  C20 LG1 d5015      21.848  25.130  53.550  0.00  0.00     0.010 C 
ATOM     20  C21 LG1 d5015      18.234  26.294  53.460  0.00  0.00     0.020 C 
ENDROOT
BRANCH   4  21
ATOM     21  C7  LG1 d5015      22.665  27.160  47.608  0.00  0.00     0.128 C 
ATOM     22  O1  LG1 d5015      21.934  26.804  46.708  0.00  0.00    -0.298 OA
ATOM     23  C8  LG1 d5015      23.473  28.403  47.471  0.00  0.00     0.091 C 
ENDBRANCH   4  21
TORSDOF 1
ENDMDL
