REMARK INTER + INTRA:          -7.414
REMARK INTER:                  -7.274
REMARK INTRA:                  -0.140
REMARK UNBOUND:                -0.140
REMARK  1 active torsions:
REMARK  status: ('A' for Active; 'I' for Inactive)
REMARK    1  A    between atoms: C7_7  and  C4_4 
ROOT
ATOM      1  C1  LG1 d5015      22.014  26.400  49.712  0.00  0.00    -0.004 C 
ATOM      2  C2  LG1 d5015      22.300  25.873  51.122  0.00  0.00    -0.001 C 
ATOM      3  C3  LG1 d5015      21.161  26.222  52.151  0.00  0.00    -0.030 C 
ATOM      4  C4  LG1 d5015      21.739  25.478  53.401  0.00  0.00     0.063 C 
ATOM      5  C5  LG1 d5015      22.341  24.143  52.836  0.00  0.00     0.013 C 
ATOM      6  C6  LG1 d5015      22.509  24.347  51.287  0.00  0.00     0.006 C 
ATOM      7  C9  LG1 d5015      19.768  25.610  51.770  0.00  0.00     0.016 C 
ATOM      8  C10 LG1 d5015      21.129  27.764  52.240  0.00  0.00     0.011 C 
ATOM      9  C11 LG1 d5015      20.863  28.401  50.848  0.00  0.00     0.007 C 
ATOM     10  C12 LG1 d5015      21.909  27.959  49.791  0.00  0.00     0.002 C 
ATOM     11  C13 LG1 d5015      21.634  28.625  48.393  0.00  0.00    -0.016 C 
ATOM     12  C14 LG1 d5015      22.725  28.114  47.367  0.00  0.00    -0.068 C 
ATOM     13  C15 LG1 d5015      23.395  28.909  46.552  0.00  0.00     0.053 C 
ATOM     14  C16 LG1 d5015      23.088  30.327  46.446  0.00  0.00     0.149 C 
ATOM     15  C17 LG1 d5015      21.906  30.913  47.213  0.00  0.00     0.084 C 
ATOM     16  C18 LG1 d5015      21.742  30.165  48.559  0.00  0.00     0.022 C 
ATOM     17  O2  LG1 d5015      23.738  31.056  45.676  0.00  0.00    -0.293 OA
ATOM     18  C19 LG1 d5015      23.036  26.621  47.350  0.00  0.00     0.035 C 
ATOM     19  C20 LG1 d5015      23.189  26.039  48.768  0.00  0.00     0.010 C 
ATOM     20  C21 LG1 d5015      20.234  28.216  47.792  0.00  0.00     0.020 C 
ENDROOT
BRANCH   4  21
ATOM     21  C7  LG1 d5015      20.750  25.306  54.566  0.00  0.00     0.128 C 
ATOM     22  O1  LG1 d5015      20.171  24.252  54.722  0.00  0.00    -0.298 OA
ATOM     23  C8  LG1 d5015      20.517  26.439  55.504  0.00  0.00     0.091 C 
ENDBRANCH   4  21
TORSDOF 1
ENDMDL
