MODEL 1
REMARK VINA RESULT:    -7.389      0.000      0.000
REMARK INTER + INTRA:          -7.971
REMARK INTER:                  -7.786
REMARK INTRA:                  -0.185
REMARK UNBOUND:                -0.150
REMARK  1 active torsions:
REMARK  status: ('A' for Active; 'I' for Inactive)
REMARK    1  A    between atoms: C7_7  and  C4_4 
ROOT
ATOM      1  C1  LG1 d5015      21.173  25.805  52.329  0.00  0.00    -0.004 C 
ATOM      2  C2  LG1 d5015      22.132  25.795  51.134  0.00  0.00    -0.001 C 
ATOM      3  C3  LG1 d5015      21.509  26.443  49.841  0.00  0.00    -0.030 C 
ATOM      4  C4  LG1 d5015      22.757  26.335  48.902  0.00  0.00     0.063 C 
ATOM      5  C5  LG1 d5015      23.985  26.671  49.819  0.00  0.00     0.013 C 
ATOM      6  C6  LG1 d5015      23.493  26.514  51.303  0.00  0.00     0.006 C 
ATOM      7  C9  LG1 d5015      21.117  27.951  50.027  0.00  0.00     0.016 C 
ATOM      8  C10 LG1 d5015      20.302  25.556  49.463  0.00  0.00     0.011 C 
ATOM      9  C11 LG1 d5015      19.273  25.484  50.625  0.00  0.00     0.007 C 
ATOM     10  C12 LG1 d5015      19.909  24.968  51.942  0.00  0.00     0.002 C 
ATOM     11  C13 LG1 d5015      18.850  24.887  53.102  0.00  0.00    -0.016 C 
ATOM     12  C14 LG1 d5015      19.574  24.373  54.412  0.00  0.00    -0.068 C 
ATOM     13  C15 LG1 d5015      19.096  23.417  55.188  0.00  0.00     0.053 C 
ATOM     14  C16 LG1 d5015      17.781  22.837  54.961  0.00  0.00     0.149 C 
ATOM     15  C17 LG1 d5015      16.876  23.397  53.867  0.00  0.00     0.084 C 
ATOM     16  C18 LG1 d5015      17.743  23.884  52.680  0.00  0.00     0.022 C 
ATOM     17  O2  LG1 d5015      17.355  21.933  55.702  0.00  0.00    -0.293 OA
ATOM     18  C19 LG1 d5015      20.917  25.001  54.771  0.00  0.00     0.035 C 
ATOM     19  C20 LG1 d5015      21.848  25.130  53.550  0.00  0.00     0.010 C 
ATOM     20  C21 LG1 d5015      18.234  26.294  53.460  0.00  0.00     0.020 C 
ENDROOT
BRANCH   4  21
ATOM     21  C7  LG1 d5015      22.665  27.160  47.608  0.00  0.00     0.128 C 
ATOM     22  O1  LG1 d5015      21.934  26.804  46.708  0.00  0.00    -0.298 OA
ATOM     23  C8  LG1 d5015      23.473  28.403  47.471  0.00  0.00     0.091 C 
ENDBRANCH   4  21
TORSDOF 1
ENDMDL
MODEL 2
REMARK VINA RESULT:    -7.350      1.409      7.172
REMARK INTER + INTRA:          -7.930
REMARK INTER:                  -7.796
REMARK INTRA:                  -0.134
REMARK UNBOUND:                -0.150
REMARK  1 active torsions:
REMARK  status: ('A' for Active; 'I' for Inactive)
REMARK    1  A    between atoms: C7_7  and  C4_4 
ROOT
ATOM      1  C1  LG1 d5015      22.180  25.922  50.477  0.00  0.00    -0.004 C 
ATOM      2  C2  LG1 d5015      21.382  25.879  51.785  0.00  0.00    -0.001 C 
ATOM      3  C3  LG1 d5015      20.011  25.119  51.643  0.00  0.00    -0.030 C 
ATOM      4  C4  LG1 d5015      19.543  25.201  53.135  0.00  0.00     0.063 C 
ATOM      5  C5  LG1 d5015      20.845  24.975  53.982  0.00  0.00     0.013 C 
ATOM      6  C6  LG1 d5015      22.058  25.222  53.013  0.00  0.00     0.006 C 
ATOM      7  C9  LG1 d5015      20.173  23.615  51.223  0.00  0.00     0.016 C 
ATOM      8  C10 LG1 d5015      19.178  25.934  50.629  0.00  0.00     0.011 C 
ATOM      9  C11 LG1 d5015      19.914  26.053  49.266  0.00  0.00     0.007 C 
ATOM     10  C12 LG1 d5015      21.323  26.685  49.413  0.00  0.00     0.002 C 
ATOM     11  C13 LG1 d5015      22.046  26.813  48.022  0.00  0.00    -0.016 C 
ATOM     12  C14 LG1 d5015      23.478  27.445  48.255  0.00  0.00    -0.068 C 
ATOM     13  C15 LG1 d5015      23.968  28.437  47.534  0.00  0.00     0.053 C 
ATOM     14  C16 LG1 d5015      23.265  28.953  46.369  0.00  0.00     0.149 C 
ATOM     15  C17 LG1 d5015      21.978  28.285  45.894  0.00  0.00     0.084 C 
ATOM     16  C18 LG1 d5015      21.196  27.744  47.117  0.00  0.00     0.022 C 
ATOM     17  O2  LG1 d5015      23.744  29.893  45.710  0.00  0.00    -0.293 OA
ATOM     18  C19 LG1 d5015      24.319  26.890  49.400  0.00  0.00     0.035 C 
ATOM     19  C20 LG1 d5015      23.499  26.706  50.692  0.00  0.00     0.010 C 
ATOM     20  C21 LG1 d5015      22.285  25.415  47.333  0.00  0.00     0.020 C 
ENDROOT
BRANCH   4  21
ATOM     21  C7  LG1 d5015      18.364  24.282  53.495  0.00  0.00     0.128 C 
ATOM     22  O1  LG1 d5015      18.564  23.215  54.033  0.00  0.00    -0.298 OA
ATOM     23  C8  LG1 d5015      16.974  24.718  53.184  0.00  0.00     0.091 C 
ENDBRANCH   4  21
TORSDOF 1
ENDMDL
MODEL 3
REMARK VINA RESULT:    -7.344      2.089      3.350
REMARK INTER + INTRA:          -7.923
REMARK INTER:                  -7.731
REMARK INTRA:                  -0.192
REMARK UNBOUND:                -0.150
REMARK  1 active torsions:
REMARK  status: ('A' for Active; 'I' for Inactive)
REMARK    1  A    between atoms: C7_7  and  C4_4 
ROOT
ATOM      1  C1  LG1 d5015      21.722  25.803  50.783  0.00  0.00    -0.004 C 
ATOM      2  C2  LG1 d5015      21.391  26.521  49.471  0.00  0.00    -0.001 C 
ATOM      3  C3  LG1 d5015      22.319  27.764  49.200  0.00  0.00    -0.030 C 
ATOM      4  C4  LG1 d5015      21.764  28.168  47.794  0.00  0.00     0.063 C 
ATOM      5  C5  LG1 d5015      21.502  26.809  47.055  0.00  0.00     0.013 C 
ATOM      6  C6  LG1 d5015      21.469  25.696  48.163  0.00  0.00     0.006 C 
ATOM      7  C9  LG1 d5015      23.839  27.392  49.082  0.00  0.00     0.016 C 
ATOM      8  C10 LG1 d5015      22.038  28.760  50.348  0.00  0.00     0.011 C 
ATOM      9  C11 LG1 d5015      22.325  28.116  51.733  0.00  0.00     0.007 C 
ATOM     10  C12 LG1 d5015      21.510  26.816  51.956  0.00  0.00     0.002 C 
ATOM     11  C13 LG1 d5015      21.801  26.187  53.368  0.00  0.00    -0.016 C 
ATOM     12  C14 LG1 d5015      20.951  24.860  53.515  0.00  0.00    -0.068 C 
ATOM     13  C15 LG1 d5015      20.232  24.564  54.582  0.00  0.00     0.053 C 
ATOM     14  C16 LG1 d5015      20.264  25.392  55.778  0.00  0.00     0.149 C 
ATOM     15  C17 LG1 d5015      21.217  26.582  55.859  0.00  0.00     0.084 C 
ATOM     16  C18 LG1 d5015      21.375  27.212  54.453  0.00  0.00     0.022 C 
ATOM     17  O2  LG1 d5015      19.573  25.096  56.769  0.00  0.00    -0.293 OA
ATOM     18  C19 LG1 d5015      20.943  23.892  52.337  0.00  0.00     0.035 C 
ATOM     19  C20 LG1 d5015      20.751  24.612  50.988  0.00  0.00     0.010 C 
ATOM     20  C21 LG1 d5015      23.311  25.768  53.545  0.00  0.00     0.020 C 
ENDROOT
BRANCH   4  21
ATOM     21  C7  LG1 d5015      22.633  29.174  47.020  0.00  0.00     0.128 C 
ATOM     22  O1  LG1 d5015      22.843  30.277  47.477  0.00  0.00    -0.298 OA
ATOM     23  C8  LG1 d5015      23.223  28.778  45.710  0.00  0.00     0.091 C 
ENDBRANCH   4  21
TORSDOF 1
ENDMDL
MODEL 4
REMARK VINA RESULT:    -6.378      2.879      6.594
REMARK INTER + INTRA:          -6.901
REMARK INTER:                  -6.750
REMARK INTRA:                  -0.150
REMARK UNBOUND:                -0.150
REMARK  1 active torsions:
REMARK  status: ('A' for Active; 'I' for Inactive)
REMARK    1  A    between atoms: C7_7  and  C4_4 
ROOT
ATOM      1  C1  LG1 d5015      20.529  26.938  51.339  0.00  0.00    -0.004 C 
ATOM      2  C2  LG1 d5015      20.498  26.678  52.849  0.00  0.00    -0.001 C 
ATOM      3  C3  LG1 d5015      21.812  27.143  53.579  0.00  0.00    -0.030 C 
ATOM      4  C4  LG1 d5015      21.392  26.811  55.050  0.00  0.00     0.063 C 
ATOM      5  C5  LG1 d5015      19.879  27.217  55.142  0.00  0.00     0.013 C 
ATOM      6  C6  LG1 d5015      19.356  27.331  53.664  0.00  0.00     0.006 C 
ATOM      7  C9  LG1 d5015      22.089  28.682  53.444  0.00  0.00     0.016 C 
ATOM      8  C10 LG1 d5015      22.952  26.281  52.992  0.00  0.00     0.011 C 
ATOM      9  C11 LG1 d5015      23.054  26.459  51.452  0.00  0.00     0.007 C 
ATOM     10  C12 LG1 d5015      21.721  26.126  50.733  0.00  0.00     0.002 C 
ATOM     11  C13 LG1 d5015      21.848  26.297  49.174  0.00  0.00    -0.016 C 
ATOM     12  C14 LG1 d5015      20.450  25.959  48.514  0.00  0.00    -0.068 C 
ATOM     13  C15 LG1 d5015      20.306  25.171  47.464  0.00  0.00     0.053 C 
ATOM     14  C16 LG1 d5015      21.454  24.642  46.744  0.00  0.00     0.149 C 
ATOM     15  C17 LG1 d5015      22.865  25.070  47.134  0.00  0.00     0.084 C 
ATOM     16  C18 LG1 d5015      22.929  25.306  48.663  0.00  0.00     0.022 C 
ATOM     17  O2  LG1 d5015      21.292  23.896  45.761  0.00  0.00    -0.293 OA
ATOM     18  C19 LG1 d5015      19.202  26.556  49.156  0.00  0.00     0.035 C 
ATOM     19  C20 LG1 d5015      19.216  26.430  50.691  0.00  0.00     0.010 C 
ATOM     20  C21 LG1 d5015      22.191  27.777  48.753  0.00  0.00     0.020 C 
ENDROOT
BRANCH   4  21
ATOM     21  C7  LG1 d5015      22.297  27.420  56.134  0.00  0.00     0.128 C 
ATOM     22  O1  LG1 d5015      21.893  28.330  56.826  0.00  0.00    -0.298 OA
ATOM     23  C8  LG1 d5015      23.670  26.877  56.333  0.00  0.00     0.091 C 
ENDBRANCH   4  21
TORSDOF 1
ENDMDL
