REMARK INTER + INTRA:          -7.915
REMARK INTER:                  -7.785
REMARK INTRA:                  -0.131
REMARK UNBOUND:                -0.111
REMARK  1 active torsions:
REMARK  status: ('A' for Active; 'I' for Inactive)
REMARK    1  A    between atoms: C7_7  and  C4_4 
ROOT
ATOM      1  C1  LG1 d5015      22.159  25.926  50.463  0.00  0.00    -0.004 C 
ATOM      2  C2  LG1 d5015      21.362  25.876  51.771  0.00  0.00    -0.001 C 
ATOM      3  C3  LG1 d5015      19.981  25.136  51.622  0.00  0.00    -0.030 C 
ATOM      4  C4  LG1 d5015      19.516  25.205  53.114  0.00  0.00     0.063 C 
ATOM      5  C5  LG1 d5015      20.815  24.949  53.956  0.00  0.00     0.013 C 
ATOM      6  C6  LG1 d5015      22.030  25.193  52.990  0.00  0.00     0.006 C 
ATOM      7  C9  LG1 d5015      20.121  23.637  51.180  0.00  0.00     0.016 C 
ATOM      8  C10 LG1 d5015      19.157  25.977  50.620  0.00  0.00     0.011 C 
ATOM      9  C11 LG1 d5015      19.893  26.105  49.257  0.00  0.00     0.007 C 
ATOM     10  C12 LG1 d5015      21.311  26.715  49.411  0.00  0.00     0.002 C 
ATOM     11  C13 LG1 d5015      22.034  26.853  48.021  0.00  0.00    -0.016 C 
ATOM     12  C14 LG1 d5015      23.475  27.462  48.260  0.00  0.00    -0.068 C 
ATOM     13  C15 LG1 d5015      23.977  28.457  47.552  0.00  0.00     0.053 C 
ATOM     14  C16 LG1 d5015      23.280  28.999  46.396  0.00  0.00     0.149 C 
ATOM     15  C17 LG1 d5015      21.984  28.355  45.914  0.00  0.00     0.084 C 
ATOM     16  C18 LG1 d5015      21.196  27.808  47.130  0.00  0.00     0.022 C 
ATOM     17  O2  LG1 d5015      23.771  29.942  45.749  0.00  0.00    -0.293 OA
ATOM     18  C19 LG1 d5015      24.309  26.880  49.397  0.00  0.00     0.035 C 
ATOM     19  C20 LG1 d5015      23.489  26.690  50.687  0.00  0.00     0.010 C 
ATOM     20  C21 LG1 d5015      22.253  25.461  47.312  0.00  0.00     0.020 C 
ENDROOT
BRANCH   4  21
ATOM     21  C7  LG1 d5015      18.324  24.297  53.463  0.00  0.00     0.128 C 
ATOM     22  O1  LG1 d5015      18.511  23.215  53.976  0.00  0.00    -0.298 OA
ATOM     23  C8  LG1 d5015      16.939  24.761  53.174  0.00  0.00     0.091 C 
ENDBRANCH   4  21
TORSDOF 1
ENDMDL
