REMARK INTER + INTRA:          -7.170
REMARK INTER:                  -7.122
REMARK INTRA:                  -0.049
REMARK UNBOUND:                -0.111
REMARK  1 active torsions:
REMARK  status: ('A' for Active; 'I' for Inactive)
REMARK    1  A    between atoms: C7_7  and  C4_4 
ROOT
ATOM      1  C1  LG1 d5015      21.916  26.443  50.682  0.00  0.00    -0.004 C 
ATOM      2  C2  LG1 d5015      22.128  26.687  49.184  0.00  0.00    -0.001 C 
ATOM      3  C3  LG1 d5015      21.158  27.779  48.596  0.00  0.00    -0.030 C 
ATOM      4  C4  LG1 d5015      21.708  27.815  47.131  0.00  0.00     0.063 C 
ATOM      5  C5  LG1 d5015      23.265  27.691  47.278  0.00  0.00     0.013 C 
ATOM      6  C6  LG1 d5015      23.536  27.140  48.725  0.00  0.00     0.006 C 
ATOM      7  C9  LG1 d5015      21.333  29.190  49.261  0.00  0.00     0.016 C 
ATOM      8  C10 LG1 d5015      19.731  27.213  48.767  0.00  0.00     0.011 C 
ATOM      9  C11 LG1 d5015      19.422  26.911  50.260  0.00  0.00     0.007 C 
ATOM     10  C12 LG1 d5015      20.451  25.934  50.886  0.00  0.00     0.002 C 
ATOM     11  C13 LG1 d5015      20.114  25.627  52.392  0.00  0.00    -0.016 C 
ATOM     12  C14 LG1 d5015      21.213  24.643  52.965  0.00  0.00    -0.068 C 
ATOM     13  C15 LG1 d5015      20.933  23.560  53.667  0.00  0.00     0.053 C 
ATOM     14  C16 LG1 d5015      19.574  23.250  54.082  0.00  0.00     0.149 C 
ATOM     15  C17 LG1 d5015      18.443  24.232  53.792  0.00  0.00     0.084 C 
ATOM     16  C18 LG1 d5015      18.717  24.953  52.449  0.00  0.00     0.022 C 
ATOM     17  O2  LG1 d5015      19.335  22.220  54.737  0.00  0.00    -0.293 OA
ATOM     18  C19 LG1 d5015      22.673  24.955  52.653  0.00  0.00     0.035 C 
ATOM     19  C20 LG1 d5015      22.887  25.341  51.177  0.00  0.00     0.010 C 
ATOM     20  C21 LG1 d5015      20.159  26.917  53.298  0.00  0.00     0.020 C 
ENDROOT
BRANCH   4  21
ATOM     21  C7  LG1 d5015      21.226  29.008  46.289  0.00  0.00     0.128 C 
ATOM     22  O1  LG1 d5015      20.184  28.938  45.673  0.00  0.00    -0.298 OA
ATOM     23  C8  LG1 d5015      22.044  30.251  46.241  0.00  0.00     0.091 C 
ENDBRANCH   4  21
TORSDOF 1
ENDMDL
