REMARK INTER + INTRA:          -7.914
REMARK INTER:                  -7.780
REMARK INTRA:                  -0.134
REMARK UNBOUND:                -0.202
REMARK  1 active torsions:
REMARK  status: ('A' for Active; 'I' for Inactive)
REMARK    1  A    between atoms: C7_7  and  C4_4 
ROOT
ATOM      1  C1  LG1 d5015      22.206  25.911  50.481  0.00  0.00    -0.004 C 
ATOM      2  C2  LG1 d5015      21.406  25.852  51.788  0.00  0.00    -0.001 C 
ATOM      3  C3  LG1 d5015      20.044  25.078  51.639  0.00  0.00    -0.030 C 
ATOM      4  C4  LG1 d5015      19.572  25.147  53.130  0.00  0.00     0.063 C 
ATOM      5  C5  LG1 d5015      20.875  24.930  53.978  0.00  0.00     0.013 C 
ATOM      6  C6  LG1 d5015      22.087  25.195  53.013  0.00  0.00     0.006 C 
ATOM      7  C9  LG1 d5015      20.222  23.579  51.210  0.00  0.00     0.016 C 
ATOM      8  C10 LG1 d5015      19.204  25.890  50.628  0.00  0.00     0.011 C 
ATOM      9  C11 LG1 d5015      19.941  26.026  49.267  0.00  0.00     0.007 C 
ATOM     10  C12 LG1 d5015      21.342  26.671  49.421  0.00  0.00     0.002 C 
ATOM     11  C13 LG1 d5015      22.067  26.815  48.031  0.00  0.00    -0.016 C 
ATOM     12  C14 LG1 d5015      23.492  27.461  48.271  0.00  0.00    -0.068 C 
ATOM     13  C15 LG1 d5015      23.972  28.463  47.556  0.00  0.00     0.053 C 
ATOM     14  C16 LG1 d5015      23.266  28.978  46.393  0.00  0.00     0.149 C 
ATOM     15  C17 LG1 d5015      21.987  28.299  45.912  0.00  0.00     0.084 C 
ATOM     16  C18 LG1 d5015      21.209  27.742  47.130  0.00  0.00     0.022 C 
ATOM     17  O2  LG1 d5015      23.736  29.927  45.740  0.00  0.00    -0.293 OA
ATOM     18  C19 LG1 d5015      24.336  26.909  49.414  0.00  0.00     0.035 C 
ATOM     19  C20 LG1 d5015      23.516  26.709  50.703  0.00  0.00     0.010 C 
ATOM     20  C21 LG1 d5015      22.322  25.424  47.334  0.00  0.00     0.020 C 
ENDROOT
BRANCH   4  21
ATOM     21  C7  LG1 d5015      18.402  24.213  53.482  0.00  0.00     0.128 C 
ATOM     22  O1  LG1 d5015      18.613  23.144  54.014  0.00  0.00    -0.298 OA
ATOM     23  C8  LG1 d5015      17.008  24.636  53.173  0.00  0.00     0.091 C 
ENDBRANCH   4  21
TORSDOF 1
ENDMDL
