REMARK INTER + INTRA:          -7.345
REMARK INTER:                  -7.141
REMARK INTRA:                  -0.204
REMARK UNBOUND:                -0.140
REMARK  1 active torsions:
REMARK  status: ('A' for Active; 'I' for Inactive)
REMARK    1  A    between atoms: C7_7  and  C4_4 
ROOT
ATOM      1  C1  LG1 d5015      21.887  26.312  50.859  0.00  0.00    -0.004 C 
ATOM      2  C2  LG1 d5015      22.038  26.566  49.356  0.00  0.00    -0.001 C 
ATOM      3  C3  LG1 d5015      21.183  27.787  48.850  0.00  0.00    -0.030 C 
ATOM      4  C4  LG1 d5015      21.643  27.791  47.354  0.00  0.00     0.063 C 
ATOM      5  C5  LG1 d5015      23.177  27.466  47.400  0.00  0.00     0.013 C 
ATOM      6  C6  LG1 d5015      23.462  26.848  48.817  0.00  0.00     0.006 C 
ATOM      7  C9  LG1 d5015      21.577  29.147  49.527  0.00  0.00     0.016 C 
ATOM      8  C10 LG1 d5015      19.707  27.404  49.101  0.00  0.00     0.011 C 
ATOM      9  C11 LG1 d5015      19.453  27.105  50.604  0.00  0.00     0.007 C 
ATOM     10  C12 LG1 d5015      20.383  25.989  51.146  0.00  0.00     0.002 C 
ATOM     11  C13 LG1 d5015      20.101  25.689  52.665  0.00  0.00    -0.016 C 
ATOM     12  C14 LG1 d5015      21.096  24.558  53.149  0.00  0.00    -0.068 C 
ATOM     13  C15 LG1 d5015      20.723  23.502  53.849  0.00  0.00     0.053 C 
ATOM     14  C16 LG1 d5015      19.362  23.357  54.342  0.00  0.00     0.149 C 
ATOM     15  C17 LG1 d5015      18.351  24.482  54.142  0.00  0.00     0.084 C 
ATOM     16  C18 LG1 d5015      18.635  25.197  52.798  0.00  0.00     0.022 C 
ATOM     17  O2  LG1 d5015      19.032  22.349  54.993  0.00  0.00    -0.293 OA
ATOM     18  C19 LG1 d5015      22.563  24.689  52.752  0.00  0.00     0.035 C 
ATOM     19  C20 LG1 d5015      22.736  25.083  51.272  0.00  0.00     0.010 C 
ATOM     20  C21 LG1 d5015      20.366  26.939  53.589  0.00  0.00     0.020 C 
ENDROOT
BRANCH   4  21
ATOM     21  C7  LG1 d5015      21.269  29.057  46.565  0.00  0.00     0.128 C 
ATOM     22  O1  LG1 d5015      20.105  29.315  46.343  0.00  0.00    -0.298 OA
ATOM     23  C8  LG1 d5015      22.345  29.966  46.084  0.00  0.00     0.091 C 
ENDBRANCH   4  21
TORSDOF 1
ENDMDL
