REMARK INTER + INTRA:          -7.924
REMARK INTER:                  -7.732
REMARK INTRA:                  -0.192
REMARK UNBOUND:                -0.143
REMARK  1 active torsions:
REMARK  status: ('A' for Active; 'I' for Inactive)
REMARK    1  A    between atoms: C7_7  and  C4_4 
ROOT
ATOM      1  C1  LG1 d5015      21.721  25.795  50.781  0.00  0.00    -0.004 C 
ATOM      2  C2  LG1 d5015      21.391  26.516  49.470  0.00  0.00    -0.001 C 
ATOM      3  C3  LG1 d5015      22.319  27.759  49.202  0.00  0.00    -0.030 C 
ATOM      4  C4  LG1 d5015      21.764  28.166  47.796  0.00  0.00     0.063 C 
ATOM      5  C5  LG1 d5015      21.502  26.809  47.055  0.00  0.00     0.013 C 
ATOM      6  C6  LG1 d5015      21.468  25.693  48.161  0.00  0.00     0.006 C 
ATOM      7  C9  LG1 d5015      23.839  27.387  49.083  0.00  0.00     0.016 C 
ATOM      8  C10 LG1 d5015      22.038  28.752  50.351  0.00  0.00     0.011 C 
ATOM      9  C11 LG1 d5015      22.325  28.106  51.735  0.00  0.00     0.007 C 
ATOM     10  C12 LG1 d5015      21.509  26.806  51.956  0.00  0.00     0.002 C 
ATOM     11  C13 LG1 d5015      21.801  26.174  53.367  0.00  0.00    -0.016 C 
ATOM     12  C14 LG1 d5015      20.950  24.847  53.511  0.00  0.00    -0.068 C 
ATOM     13  C15 LG1 d5015      20.231  24.549  54.578  0.00  0.00     0.053 C 
ATOM     14  C16 LG1 d5015      20.264  25.375  55.775  0.00  0.00     0.149 C 
ATOM     15  C17 LG1 d5015      21.216  26.564  55.858  0.00  0.00     0.084 C 
ATOM     16  C18 LG1 d5015      21.375  27.197  54.454  0.00  0.00     0.022 C 
ATOM     17  O2  LG1 d5015      19.572  25.077  56.765  0.00  0.00    -0.293 OA
ATOM     18  C19 LG1 d5015      20.942  23.881  52.331  0.00  0.00     0.035 C 
ATOM     19  C20 LG1 d5015      20.750  24.603  50.984  0.00  0.00     0.010 C 
ATOM     20  C21 LG1 d5015      23.310  25.754  53.543  0.00  0.00     0.020 C 
ENDROOT
BRANCH   4  21
ATOM     21  C7  LG1 d5015      22.634  29.173  47.025  0.00  0.00     0.128 C 
ATOM     22  O1  LG1 d5015      22.843  30.275  47.484  0.00  0.00    -0.298 OA
ATOM     23  C8  LG1 d5015      23.223  28.780  45.714  0.00  0.00     0.091 C 
ENDBRANCH   4  21
TORSDOF 1
ENDMDL
