REMARK INTER + INTRA:          -7.990
REMARK INTER:                  -7.799
REMARK INTRA:                  -0.191
REMARK UNBOUND:                -0.140
REMARK  1 active torsions:
REMARK  status: ('A' for Active; 'I' for Inactive)
REMARK    1  A    between atoms: C7_7  and  C4_4 
ROOT
ATOM      1  C1  LG1 d5015      21.195  25.828  52.326  0.00  0.00    -0.004 C 
ATOM      2  C2  LG1 d5015      22.149  25.816  51.126  0.00  0.00    -0.001 C 
ATOM      3  C3  LG1 d5015      21.523  26.466  49.837  0.00  0.00    -0.030 C 
ATOM      4  C4  LG1 d5015      22.766  26.356  48.892  0.00  0.00     0.063 C 
ATOM      5  C5  LG1 d5015      23.999  26.688  49.804  0.00  0.00     0.013 C 
ATOM      6  C6  LG1 d5015      23.513  26.531  51.290  0.00  0.00     0.006 C 
ATOM      7  C9  LG1 d5015      21.135  27.976  50.025  0.00  0.00     0.016 C 
ATOM      8  C10 LG1 d5015      20.311  25.583  49.463  0.00  0.00     0.011 C 
ATOM      9  C11 LG1 d5015      19.287  25.513  50.629  0.00  0.00     0.007 C 
ATOM     10  C12 LG1 d5015      19.927  24.995  51.943  0.00  0.00     0.002 C 
ATOM     11  C13 LG1 d5015      18.872  24.916  53.108  0.00  0.00    -0.016 C 
ATOM     12  C14 LG1 d5015      19.601  24.399  54.414  0.00  0.00    -0.068 C 
ATOM     13  C15 LG1 d5015      19.124  23.443  55.191  0.00  0.00     0.053 C 
ATOM     14  C16 LG1 d5015      17.806  22.867  54.970  0.00  0.00     0.149 C 
ATOM     15  C17 LG1 d5015      16.898  23.430  53.880  0.00  0.00     0.084 C 
ATOM     16  C18 LG1 d5015      17.762  23.916  52.689  0.00  0.00     0.022 C 
ATOM     17  O2  LG1 d5015      17.381  21.964  55.711  0.00  0.00    -0.293 OA
ATOM     18  C19 LG1 d5015      20.947  25.023  54.768  0.00  0.00     0.035 C 
ATOM     19  C20 LG1 d5015      21.873  25.150  53.543  0.00  0.00     0.010 C 
ATOM     20  C21 LG1 d5015      18.262  26.324  53.469  0.00  0.00     0.020 C 
ENDROOT
BRANCH   4  21
ATOM     21  C7  LG1 d5015      22.670  27.182  47.599  0.00  0.00     0.128 C 
ATOM     22  O1  LG1 d5015      21.920  26.839  46.711  0.00  0.00    -0.298 OA
ATOM     23  C8  LG1 d5015      23.501  28.409  47.449  0.00  0.00     0.091 C 
ENDBRANCH   4  21
TORSDOF 1
ENDMDL
