REMARK INTER + INTRA:          -7.991
REMARK INTER:                  -7.798
REMARK INTRA:                  -0.193
REMARK UNBOUND:                -0.202
REMARK  1 active torsions:
REMARK  status: ('A' for Active; 'I' for Inactive)
REMARK    1  A    between atoms: C7_7  and  C4_4 
ROOT
ATOM      1  C1  LG1 d5015      21.203  25.841  52.280  0.00  0.00    -0.004 C 
ATOM      2  C2  LG1 d5015      22.134  25.828  51.063  0.00  0.00    -0.001 C 
ATOM      3  C3  LG1 d5015      21.485  26.478  49.785  0.00  0.00    -0.030 C 
ATOM      4  C4  LG1 d5015      22.710  26.366  48.818  0.00  0.00     0.063 C 
ATOM      5  C5  LG1 d5015      23.960  26.697  49.706  0.00  0.00     0.013 C 
ATOM      6  C6  LG1 d5015      23.501  26.541  51.201  0.00  0.00     0.006 C 
ATOM      7  C9  LG1 d5015      21.102  27.988  49.981  0.00  0.00     0.016 C 
ATOM      8  C10 LG1 d5015      20.266  25.596  49.435  0.00  0.00     0.011 C 
ATOM      9  C11 LG1 d5015      19.263  25.528  50.620  0.00  0.00     0.007 C 
ATOM     10  C12 LG1 d5015      19.927  25.009  51.921  0.00  0.00     0.002 C 
ATOM     11  C13 LG1 d5015      18.894  24.931  53.105  0.00  0.00    -0.016 C 
ATOM     12  C14 LG1 d5015      19.647  24.413  54.398  0.00  0.00    -0.068 C 
ATOM     13  C15 LG1 d5015      19.183  23.459  55.184  0.00  0.00     0.053 C 
ATOM     14  C16 LG1 d5015      17.860  22.884  54.988  0.00  0.00     0.149 C 
ATOM     15  C17 LG1 d5015      16.933  23.448  53.915  0.00  0.00     0.084 C 
ATOM     16  C18 LG1 d5015      17.775  23.932  52.708  0.00  0.00     0.022 C 
ATOM     17  O2  LG1 d5015      17.448  21.981  55.737  0.00  0.00    -0.293 OA
ATOM     18  C19 LG1 d5015      20.999  25.036  54.727  0.00  0.00     0.035 C 
ATOM     19  C20 LG1 d5015      21.903  25.162  53.485  0.00  0.00     0.010 C 
ATOM     20  C21 LG1 d5015      18.292  26.340  53.478  0.00  0.00     0.020 C 
ENDROOT
BRANCH   4  21
ATOM     21  C7  LG1 d5015      22.591  27.192  47.526  0.00  0.00     0.128 C 
ATOM     22  O1  LG1 d5015      21.822  26.851  46.652  0.00  0.00    -0.298 OA
ATOM     23  C8  LG1 d5015      23.422  28.417  47.359  0.00  0.00     0.091 C 
ENDBRANCH   4  21
TORSDOF 1
ENDMDL
