REMARK INTER + INTRA:          -7.319
REMARK INTER:                  -7.117
REMARK INTRA:                  -0.202
REMARK UNBOUND:                -0.202
REMARK  1 active torsions:
REMARK  status: ('A' for Active; 'I' for Inactive)
REMARK    1  A    between atoms: C7_7  and  C4_4 
ROOT
ATOM      1  C1  LG1 d5015      21.836  26.143  50.879  0.00  0.00    -0.004 C 
ATOM      2  C2  LG1 d5015      21.938  26.432  49.378  0.00  0.00    -0.001 C 
ATOM      3  C3  LG1 d5015      21.136  27.715  48.944  0.00  0.00    -0.030 C 
ATOM      4  C4  LG1 d5015      21.532  27.738  47.430  0.00  0.00     0.063 C 
ATOM      5  C5  LG1 d5015      23.045  27.323  47.400  0.00  0.00     0.013 C 
ATOM      6  C6  LG1 d5015      23.352  26.648  48.785  0.00  0.00     0.006 C 
ATOM      7  C9  LG1 d5015      21.638  29.029  49.641  0.00  0.00     0.016 C 
ATOM      8  C10 LG1 d5015      19.652  27.410  49.249  0.00  0.00     0.011 C 
ATOM      9  C11 LG1 d5015      19.444  27.082  50.754  0.00  0.00     0.007 C 
ATOM     10  C12 LG1 d5015      20.330  25.898  51.223  0.00  0.00     0.002 C 
ATOM     11  C13 LG1 d5015      20.095  25.570  52.744  0.00  0.00    -0.016 C 
ATOM     12  C14 LG1 d5015      21.042  24.369  53.153  0.00  0.00    -0.068 C 
ATOM     13  C15 LG1 d5015      20.636  23.316  53.839  0.00  0.00     0.053 C 
ATOM     14  C16 LG1 d5015      19.292  23.234  54.388  0.00  0.00     0.149 C 
ATOM     15  C17 LG1 d5015      18.341  24.422  54.263  0.00  0.00     0.084 C 
ATOM     16  C18 LG1 d5015      18.609  25.159  52.928  0.00  0.00     0.022 C 
ATOM     17  O2  LG1 d5015      18.931  22.229  55.025  0.00  0.00    -0.293 OA
ATOM     18  C19 LG1 d5015      22.495  24.427  52.695  0.00  0.00     0.035 C 
ATOM     19  C20 LG1 d5015      22.628  24.855  51.221  0.00  0.00     0.010 C 
ATOM     20  C21 LG1 d5015      20.472  26.774  53.689  0.00  0.00     0.020 C 
ENDROOT
BRANCH   4  21
ATOM     21  C7  LG1 d5015      21.199  29.046  46.694  0.00  0.00     0.128 C 
ATOM     22  O1  LG1 d5015      20.046  29.395  46.561  0.00  0.00    -0.298 OA
ATOM     23  C8  LG1 d5015      22.305  29.884  46.152  0.00  0.00     0.091 C 
ENDBRANCH   4  21
TORSDOF 1
ENDMDL
