MODEL 1
REMARK VINA RESULT:    -7.416      0.000      0.000
REMARK INTER + INTRA:          -7.990
REMARK INTER:                  -7.799
REMARK INTRA:                  -0.191
REMARK UNBOUND:                -0.140
REMARK  1 active torsions:
REMARK  status: ('A' for Active; 'I' for Inactive)
REMARK    1  A    between atoms: C7_7  and  C4_4 
ROOT
ATOM      1  C1  LG1 d5015      21.195  25.828  52.326  0.00  0.00    -0.004 C 
ATOM      2  C2  LG1 d5015      22.149  25.816  51.126  0.00  0.00    -0.001 C 
ATOM      3  C3  LG1 d5015      21.523  26.466  49.837  0.00  0.00    -0.030 C 
ATOM      4  C4  LG1 d5015      22.766  26.356  48.892  0.00  0.00     0.063 C 
ATOM      5  C5  LG1 d5015      23.999  26.688  49.804  0.00  0.00     0.013 C 
ATOM      6  C6  LG1 d5015      23.513  26.531  51.290  0.00  0.00     0.006 C 
ATOM      7  C9  LG1 d5015      21.135  27.976  50.025  0.00  0.00     0.016 C 
ATOM      8  C10 LG1 d5015      20.311  25.583  49.463  0.00  0.00     0.011 C 
ATOM      9  C11 LG1 d5015      19.287  25.513  50.629  0.00  0.00     0.007 C 
ATOM     10  C12 LG1 d5015      19.927  24.995  51.943  0.00  0.00     0.002 C 
ATOM     11  C13 LG1 d5015      18.872  24.916  53.108  0.00  0.00    -0.016 C 
ATOM     12  C14 LG1 d5015      19.601  24.399  54.414  0.00  0.00    -0.068 C 
ATOM     13  C15 LG1 d5015      19.124  23.443  55.191  0.00  0.00     0.053 C 
ATOM     14  C16 LG1 d5015      17.806  22.867  54.970  0.00  0.00     0.149 C 
ATOM     15  C17 LG1 d5015      16.898  23.430  53.880  0.00  0.00     0.084 C 
ATOM     16  C18 LG1 d5015      17.762  23.916  52.689  0.00  0.00     0.022 C 
ATOM     17  O2  LG1 d5015      17.381  21.964  55.711  0.00  0.00    -0.293 OA
ATOM     18  C19 LG1 d5015      20.947  25.023  54.768  0.00  0.00     0.035 C 
ATOM     19  C20 LG1 d5015      21.873  25.150  53.543  0.00  0.00     0.010 C 
ATOM     20  C21 LG1 d5015      18.262  26.324  53.469  0.00  0.00     0.020 C 
ENDROOT
BRANCH   4  21
ATOM     21  C7  LG1 d5015      22.670  27.182  47.599  0.00  0.00     0.128 C 
ATOM     22  O1  LG1 d5015      21.920  26.839  46.711  0.00  0.00    -0.298 OA
ATOM     23  C8  LG1 d5015      23.501  28.409  47.449  0.00  0.00     0.091 C 
ENDBRANCH   4  21
TORSDOF 1
ENDMDL
MODEL 2
REMARK VINA RESULT:    -7.374      1.401      7.172
REMARK INTER + INTRA:          -7.945
REMARK INTER:                  -7.805
REMARK INTRA:                  -0.140
REMARK UNBOUND:                -0.140
REMARK  1 active torsions:
REMARK  status: ('A' for Active; 'I' for Inactive)
REMARK    1  A    between atoms: C7_7  and  C4_4 
ROOT
ATOM      1  C1  LG1 d5015      22.195  25.933  50.472  0.00  0.00    -0.004 C 
ATOM      2  C2  LG1 d5015      21.388  25.876  51.773  0.00  0.00    -0.001 C 
ATOM      3  C3  LG1 d5015      20.028  25.098  51.617  0.00  0.00    -0.030 C 
ATOM      4  C4  LG1 d5015      19.546  25.169  53.105  0.00  0.00     0.063 C 
ATOM      5  C5  LG1 d5015      20.844  24.958  53.962  0.00  0.00     0.013 C 
ATOM      6  C6  LG1 d5015      22.061  25.224  53.005  0.00  0.00     0.006 C 
ATOM      7  C9  LG1 d5015      20.213  23.598  51.194  0.00  0.00     0.016 C 
ATOM      8  C10 LG1 d5015      19.193  25.905  50.599  0.00  0.00     0.011 C 
ATOM      9  C11 LG1 d5015      19.938  26.039  49.242  0.00  0.00     0.007 C 
ATOM     10  C12 LG1 d5015      21.337  26.688  49.403  0.00  0.00     0.002 C 
ATOM     11  C13 LG1 d5015      22.071  26.830  48.019  0.00  0.00    -0.016 C 
ATOM     12  C14 LG1 d5015      23.492  27.481  48.266  0.00  0.00    -0.068 C 
ATOM     13  C15 LG1 d5015      23.975  28.482  47.552  0.00  0.00     0.053 C 
ATOM     14  C16 LG1 d5015      23.275  28.992  46.383  0.00  0.00     0.149 C 
ATOM     15  C17 LG1 d5015      22.001  28.309  45.895  0.00  0.00     0.084 C 
ATOM     16  C18 LG1 d5015      21.216  27.753  47.109  0.00  0.00     0.022 C 
ATOM     17  O2  LG1 d5015      23.746  29.941  45.731  0.00  0.00    -0.293 OA
ATOM     18  C19 LG1 d5015      24.330  26.934  49.416  0.00  0.00     0.035 C 
ATOM     19  C20 LG1 d5015      23.502  26.735  50.700  0.00  0.00     0.010 C 
ATOM     20  C21 LG1 d5015      22.334  25.438  47.327  0.00  0.00     0.020 C 
ENDROOT
BRANCH   4  21
ATOM     21  C7  LG1 d5015      18.376  24.233  53.452  0.00  0.00     0.128 C 
ATOM     22  O1  LG1 d5015      18.584  23.181  54.017  0.00  0.00    -0.298 OA
ATOM     23  C8  LG1 d5015      16.987  24.633  53.095  0.00  0.00     0.091 C 
ENDBRANCH   4  21
TORSDOF 1
ENDMDL
MODEL 3
REMARK VINA RESULT:    -7.349      2.077      3.329
REMARK INTER + INTRA:          -7.919
REMARK INTER:                  -7.729
REMARK INTRA:                  -0.190
REMARK UNBOUND:                -0.140
REMARK  1 active torsions:
REMARK  status: ('A' for Active; 'I' for Inactive)
REMARK    1  A    between atoms: C7_7  and  C4_4 
ROOT
ATOM      1  C1  LG1 d5015      21.720  25.798  50.784  0.00  0.00    -0.004 C 
ATOM      2  C2  LG1 d5015      21.385  26.514  49.471  0.00  0.00    -0.001 C 
ATOM      3  C3  LG1 d5015      22.309  27.758  49.197  0.00  0.00    -0.030 C 
ATOM      4  C4  LG1 d5015      21.750  28.160  47.791  0.00  0.00     0.063 C 
ATOM      5  C5  LG1 d5015      21.489  26.799  47.055  0.00  0.00     0.013 C 
ATOM      6  C6  LG1 d5015      21.461  25.687  48.165  0.00  0.00     0.006 C 
ATOM      7  C9  LG1 d5015      23.830  27.390  49.075  0.00  0.00     0.016 C 
ATOM      8  C10 LG1 d5015      22.029  28.755  50.344  0.00  0.00     0.011 C 
ATOM      9  C11 LG1 d5015      22.321  28.114  51.729  0.00  0.00     0.007 C 
ATOM     10  C12 LG1 d5015      21.508  26.812  51.956  0.00  0.00     0.002 C 
ATOM     11  C13 LG1 d5015      21.804  26.186  53.368  0.00  0.00    -0.016 C 
ATOM     12  C14 LG1 d5015      20.957  24.857  53.518  0.00  0.00    -0.068 C 
ATOM     13  C15 LG1 d5015      20.241  24.561  54.588  0.00  0.00     0.053 C 
ATOM     14  C16 LG1 d5015      20.275  25.391  55.783  0.00  0.00     0.149 C 
ATOM     15  C17 LG1 d5015      21.225  26.582  55.860  0.00  0.00     0.084 C 
ATOM     16  C18 LG1 d5015      21.379  27.211  54.453  0.00  0.00     0.022 C 
ATOM     17  O2  LG1 d5015      19.586  25.094  56.775  0.00  0.00    -0.293 OA
ATOM     18  C19 LG1 d5015      20.949  23.887  52.342  0.00  0.00     0.035 C 
ATOM     19  C20 LG1 d5015      20.752  24.605  50.993  0.00  0.00     0.010 C 
ATOM     20  C21 LG1 d5015      23.316  25.770  53.542  0.00  0.00     0.020 C 
ENDROOT
BRANCH   4  21
ATOM     21  C7  LG1 d5015      22.616  29.166  47.014  0.00  0.00     0.128 C 
ATOM     22  O1  LG1 d5015      22.824  30.270  47.470  0.00  0.00    -0.298 OA
ATOM     23  C8  LG1 d5015      23.201  28.771  45.703  0.00  0.00     0.091 C 
ENDBRANCH   4  21
TORSDOF 1
ENDMDL
MODEL 4
REMARK VINA RESULT:    -6.872      2.148      7.410
REMARK INTER + INTRA:          -7.414
REMARK INTER:                  -7.274
REMARK INTRA:                  -0.140
REMARK UNBOUND:                -0.140
REMARK  1 active torsions:
REMARK  status: ('A' for Active; 'I' for Inactive)
REMARK    1  A    between atoms: C7_7  and  C4_4 
ROOT
ATOM      1  C1  LG1 d5015      22.014  26.400  49.712  0.00  0.00    -0.004 C 
ATOM      2  C2  LG1 d5015      22.300  25.873  51.122  0.00  0.00    -0.001 C 
ATOM      3  C3  LG1 d5015      21.161  26.222  52.151  0.00  0.00    -0.030 C 
ATOM      4  C4  LG1 d5015      21.739  25.478  53.401  0.00  0.00     0.063 C 
ATOM      5  C5  LG1 d5015      22.341  24.143  52.836  0.00  0.00     0.013 C 
ATOM      6  C6  LG1 d5015      22.509  24.347  51.287  0.00  0.00     0.006 C 
ATOM      7  C9  LG1 d5015      19.768  25.610  51.770  0.00  0.00     0.016 C 
ATOM      8  C10 LG1 d5015      21.129  27.764  52.240  0.00  0.00     0.011 C 
ATOM      9  C11 LG1 d5015      20.863  28.401  50.848  0.00  0.00     0.007 C 
ATOM     10  C12 LG1 d5015      21.909  27.959  49.791  0.00  0.00     0.002 C 
ATOM     11  C13 LG1 d5015      21.634  28.625  48.393  0.00  0.00    -0.016 C 
ATOM     12  C14 LG1 d5015      22.725  28.114  47.367  0.00  0.00    -0.068 C 
ATOM     13  C15 LG1 d5015      23.395  28.909  46.552  0.00  0.00     0.053 C 
ATOM     14  C16 LG1 d5015      23.088  30.327  46.446  0.00  0.00     0.149 C 
ATOM     15  C17 LG1 d5015      21.906  30.913  47.213  0.00  0.00     0.084 C 
ATOM     16  C18 LG1 d5015      21.742  30.165  48.559  0.00  0.00     0.022 C 
ATOM     17  O2  LG1 d5015      23.738  31.056  45.676  0.00  0.00    -0.293 OA
ATOM     18  C19 LG1 d5015      23.036  26.621  47.350  0.00  0.00     0.035 C 
ATOM     19  C20 LG1 d5015      23.189  26.039  48.768  0.00  0.00     0.010 C 
ATOM     20  C21 LG1 d5015      20.234  28.216  47.792  0.00  0.00     0.020 C 
ENDROOT
BRANCH   4  21
ATOM     21  C7  LG1 d5015      20.750  25.306  54.566  0.00  0.00     0.128 C 
ATOM     22  O1  LG1 d5015      20.171  24.252  54.722  0.00  0.00    -0.298 OA
ATOM     23  C8  LG1 d5015      20.517  26.439  55.504  0.00  0.00     0.091 C 
ENDBRANCH   4  21
TORSDOF 1
ENDMDL
MODEL 5
REMARK VINA RESULT:    -6.807      1.500      2.088
REMARK INTER + INTRA:          -7.345
REMARK INTER:                  -7.141
REMARK INTRA:                  -0.204
REMARK UNBOUND:                -0.140
REMARK  1 active torsions:
REMARK  status: ('A' for Active; 'I' for Inactive)
REMARK    1  A    between atoms: C7_7  and  C4_4 
ROOT
ATOM      1  C1  LG1 d5015      21.887  26.312  50.859  0.00  0.00    -0.004 C 
ATOM      2  C2  LG1 d5015      22.038  26.566  49.356  0.00  0.00    -0.001 C 
ATOM      3  C3  LG1 d5015      21.183  27.787  48.850  0.00  0.00    -0.030 C 
ATOM      4  C4  LG1 d5015      21.643  27.791  47.354  0.00  0.00     0.063 C 
ATOM      5  C5  LG1 d5015      23.177  27.466  47.400  0.00  0.00     0.013 C 
ATOM      6  C6  LG1 d5015      23.462  26.848  48.817  0.00  0.00     0.006 C 
ATOM      7  C9  LG1 d5015      21.577  29.147  49.527  0.00  0.00     0.016 C 
ATOM      8  C10 LG1 d5015      19.707  27.404  49.101  0.00  0.00     0.011 C 
ATOM      9  C11 LG1 d5015      19.453  27.105  50.604  0.00  0.00     0.007 C 
ATOM     10  C12 LG1 d5015      20.383  25.989  51.146  0.00  0.00     0.002 C 
ATOM     11  C13 LG1 d5015      20.101  25.689  52.665  0.00  0.00    -0.016 C 
ATOM     12  C14 LG1 d5015      21.096  24.558  53.149  0.00  0.00    -0.068 C 
ATOM     13  C15 LG1 d5015      20.723  23.502  53.849  0.00  0.00     0.053 C 
ATOM     14  C16 LG1 d5015      19.362  23.357  54.342  0.00  0.00     0.149 C 
ATOM     15  C17 LG1 d5015      18.351  24.482  54.142  0.00  0.00     0.084 C 
ATOM     16  C18 LG1 d5015      18.635  25.197  52.798  0.00  0.00     0.022 C 
ATOM     17  O2  LG1 d5015      19.032  22.349  54.993  0.00  0.00    -0.293 OA
ATOM     18  C19 LG1 d5015      22.563  24.689  52.752  0.00  0.00     0.035 C 
ATOM     19  C20 LG1 d5015      22.736  25.083  51.272  0.00  0.00     0.010 C 
ATOM     20  C21 LG1 d5015      20.366  26.939  53.589  0.00  0.00     0.020 C 
ENDROOT
BRANCH   4  21
ATOM     21  C7  LG1 d5015      21.269  29.057  46.565  0.00  0.00     0.128 C 
ATOM     22  O1  LG1 d5015      20.105  29.315  46.343  0.00  0.00    -0.298 OA
ATOM     23  C8  LG1 d5015      22.345  29.966  46.084  0.00  0.00     0.091 C 
ENDBRANCH   4  21
TORSDOF 1
ENDMDL
