REMARK INTER + INTRA:          -7.010
REMARK INTER:                  -6.866
REMARK INTRA:                  -0.143
REMARK UNBOUND:                -0.143
REMARK  1 active torsions:
REMARK  status: ('A' for Active; 'I' for Inactive)
REMARK    1  A    between atoms: C7_7  and  C4_4 
ROOT
ATOM      1  C1  LG1 d5015      20.586  26.728  51.445  0.00  0.00    -0.004 C 
ATOM      2  C2  LG1 d5015      20.647  26.436  52.948  0.00  0.00    -0.001 C 
ATOM      3  C3  LG1 d5015      21.959  26.979  53.628  0.00  0.00    -0.030 C 
ATOM      4  C4  LG1 d5015      21.635  26.588  55.108  0.00  0.00     0.063 C 
ATOM      5  C5  LG1 d5015      20.103  26.883  55.280  0.00  0.00     0.013 C 
ATOM      6  C6  LG1 d5015      19.502  26.990  53.832  0.00  0.00     0.006 C 
ATOM      7  C9  LG1 d5015      22.119  28.537  53.516  0.00  0.00     0.016 C 
ATOM      8  C10 LG1 d5015      23.126  26.212  52.968  0.00  0.00     0.011 C 
ATOM      9  C11 LG1 d5015      23.141  26.429  51.429  0.00  0.00     0.007 C 
ATOM     10  C12 LG1 d5015      21.802  26.016  50.765  0.00  0.00     0.002 C 
ATOM     11  C13 LG1 d5015      21.841  26.227  49.206  0.00  0.00    -0.016 C 
ATOM     12  C14 LG1 d5015      20.440  25.803  48.605  0.00  0.00    -0.068 C 
ATOM     13  C15 LG1 d5015      20.301  25.029  47.544  0.00  0.00     0.053 C 
ATOM     14  C16 LG1 d5015      21.447  24.598  46.759  0.00  0.00     0.149 C 
ATOM     15  C17 LG1 d5015      22.842  25.117  47.093  0.00  0.00     0.084 C 
ATOM     16  C18 LG1 d5015      22.962  25.326  48.623  0.00  0.00     0.022 C 
ATOM     17  O2  LG1 d5015      21.291  23.862  45.768  0.00  0.00    -0.293 OA
ATOM     18  C19 LG1 d5015      19.185  26.297  49.318  0.00  0.00     0.035 C 
ATOM     19  C20 LG1 d5015      19.282  26.141  50.848  0.00  0.00     0.010 C 
ATOM     20  C21 LG1 d5015      22.058  27.736  48.805  0.00  0.00     0.020 C 
ENDROOT
BRANCH   4  21
ATOM     21  C7  LG1 d5015      22.546  27.238  56.163  0.00  0.00     0.128 C 
ATOM     22  O1  LG1 d5015      22.103  28.078  56.917  0.00  0.00    -0.298 OA
ATOM     23  C8  LG1 d5015      23.973  26.822  56.256  0.00  0.00     0.091 C 
ENDBRANCH   4  21
TORSDOF 1
ENDMDL
