REMARK INTER + INTRA:          -7.930
REMARK INTER:                  -7.738
REMARK INTRA:                  -0.192
REMARK UNBOUND:                -0.202
REMARK  1 active torsions:
REMARK  status: ('A' for Active; 'I' for Inactive)
REMARK    1  A    between atoms: C7_7  and  C4_4 
ROOT
ATOM      1  C1  LG1 d5015      21.721  25.802  50.784  0.00  0.00    -0.004 C 
ATOM      2  C2  LG1 d5015      21.391  26.521  49.472  0.00  0.00    -0.001 C 
ATOM      3  C3  LG1 d5015      22.320  27.763  49.201  0.00  0.00    -0.030 C 
ATOM      4  C4  LG1 d5015      21.765  28.168  47.795  0.00  0.00     0.063 C 
ATOM      5  C5  LG1 d5015      21.501  26.809  47.056  0.00  0.00     0.013 C 
ATOM      6  C6  LG1 d5015      21.467  25.695  48.165  0.00  0.00     0.006 C 
ATOM      7  C9  LG1 d5015      23.840  27.389  49.082  0.00  0.00     0.016 C 
ATOM      8  C10 LG1 d5015      22.041  28.759  50.349  0.00  0.00     0.011 C 
ATOM      9  C11 LG1 d5015      22.328  28.115  51.734  0.00  0.00     0.007 C 
ATOM     10  C12 LG1 d5015      21.511  26.815  51.957  0.00  0.00     0.002 C 
ATOM     11  C13 LG1 d5015      21.802  26.186  53.369  0.00  0.00    -0.016 C 
ATOM     12  C14 LG1 d5015      20.950  24.860  53.516  0.00  0.00    -0.068 C 
ATOM     13  C15 LG1 d5015      20.231  24.565  54.584  0.00  0.00     0.053 C 
ATOM     14  C16 LG1 d5015      20.266  25.393  55.780  0.00  0.00     0.149 C 
ATOM     15  C17 LG1 d5015      21.219  26.581  55.860  0.00  0.00     0.084 C 
ATOM     16  C18 LG1 d5015      21.378  27.212  54.455  0.00  0.00     0.022 C 
ATOM     17  O2  LG1 d5015      19.574  25.097  56.771  0.00  0.00    -0.293 OA
ATOM     18  C19 LG1 d5015      20.941  23.892  52.339  0.00  0.00     0.035 C 
ATOM     19  C20 LG1 d5015      20.749  24.612  50.990  0.00  0.00     0.010 C 
ATOM     20  C21 LG1 d5015      23.312  25.765  53.545  0.00  0.00     0.020 C 
ENDROOT
BRANCH   4  21
ATOM     21  C7  LG1 d5015      22.635  29.172  47.021  0.00  0.00     0.128 C 
ATOM     22  O1  LG1 d5015      22.846  30.275  47.478  0.00  0.00    -0.298 OA
ATOM     23  C8  LG1 d5015      23.222  28.777  45.711  0.00  0.00     0.091 C 
ENDBRANCH   4  21
TORSDOF 1
ENDMDL
