MODEL 1
REMARK VINA RESULT:    -7.442      0.000      0.000
REMARK INTER + INTRA:          -7.989
REMARK INTER:                  -7.796
REMARK INTRA:                  -0.193
REMARK UNBOUND:                -0.111
REMARK  1 active torsions:
REMARK  status: ('A' for Active; 'I' for Inactive)
REMARK    1  A    between atoms: C7_7  and  C4_4 
ROOT
ATOM      1  C1  LG1 d5015      21.185  25.847  52.300  0.00  0.00    -0.004 C 
ATOM      2  C2  LG1 d5015      22.138  25.830  51.100  0.00  0.00    -0.001 C 
ATOM      3  C3  LG1 d5015      21.513  26.481  49.810  0.00  0.00    -0.030 C 
ATOM      4  C4  LG1 d5015      22.755  26.365  48.865  0.00  0.00     0.063 C 
ATOM      5  C5  LG1 d5015      23.991  26.693  49.775  0.00  0.00     0.013 C 
ATOM      6  C6  LG1 d5015      23.505  26.540  51.262  0.00  0.00     0.006 C 
ATOM      7  C9  LG1 d5015      21.131  27.992  49.997  0.00  0.00     0.016 C 
ATOM      8  C10 LG1 d5015      20.299  25.602  49.438  0.00  0.00     0.011 C 
ATOM      9  C11 LG1 d5015      19.275  25.537  50.606  0.00  0.00     0.007 C 
ATOM     10  C12 LG1 d5015      19.915  25.018  51.919  0.00  0.00     0.002 C 
ATOM     11  C13 LG1 d5015      18.860  24.944  53.085  0.00  0.00    -0.016 C 
ATOM     12  C14 LG1 d5015      19.588  24.426  54.391  0.00  0.00    -0.068 C 
ATOM     13  C15 LG1 d5015      19.108  23.473  55.170  0.00  0.00     0.053 C 
ATOM     14  C16 LG1 d5015      17.788  22.902  54.950  0.00  0.00     0.149 C 
ATOM     15  C17 LG1 d5015      16.881  23.466  53.861  0.00  0.00     0.084 C 
ATOM     16  C18 LG1 d5015      17.745  23.947  52.669  0.00  0.00     0.022 C 
ATOM     17  O2  LG1 d5015      17.360  22.001  55.693  0.00  0.00    -0.293 OA
ATOM     18  C19 LG1 d5015      20.936  25.046  54.743  0.00  0.00     0.035 C 
ATOM     19  C20 LG1 d5015      21.862  25.168  53.518  0.00  0.00     0.010 C 
ATOM     20  C21 LG1 d5015      18.255  26.355  53.445  0.00  0.00     0.020 C 
ENDROOT
BRANCH   4  21
ATOM     21  C7  LG1 d5015      22.662  27.190  47.570  0.00  0.00     0.128 C 
ATOM     22  O1  LG1 d5015      21.902  26.855  46.687  0.00  0.00    -0.298 OA
ATOM     23  C8  LG1 d5015      23.507  28.406  47.413  0.00  0.00     0.091 C 
ENDBRANCH   4  21
TORSDOF 1
ENDMDL
MODEL 2
REMARK VINA RESULT:    -7.379      2.079      3.320
REMARK INTER + INTRA:          -7.922
REMARK INTER:                  -7.732
REMARK INTRA:                  -0.190
REMARK UNBOUND:                -0.111
REMARK  1 active torsions:
REMARK  status: ('A' for Active; 'I' for Inactive)
REMARK    1  A    between atoms: C7_7  and  C4_4 
ROOT
ATOM      1  C1  LG1 d5015      21.719  25.798  50.782  0.00  0.00    -0.004 C 
ATOM      2  C2  LG1 d5015      21.384  26.514  49.470  0.00  0.00    -0.001 C 
ATOM      3  C3  LG1 d5015      22.308  27.758  49.196  0.00  0.00    -0.030 C 
ATOM      4  C4  LG1 d5015      21.749  28.160  47.790  0.00  0.00     0.063 C 
ATOM      5  C5  LG1 d5015      21.487  26.800  47.054  0.00  0.00     0.013 C 
ATOM      6  C6  LG1 d5015      21.459  25.687  48.164  0.00  0.00     0.006 C 
ATOM      7  C9  LG1 d5015      23.829  27.389  49.073  0.00  0.00     0.016 C 
ATOM      8  C10 LG1 d5015      22.029  28.755  50.343  0.00  0.00     0.011 C 
ATOM      9  C11 LG1 d5015      22.321  28.113  51.728  0.00  0.00     0.007 C 
ATOM     10  C12 LG1 d5015      21.509  26.812  51.955  0.00  0.00     0.002 C 
ATOM     11  C13 LG1 d5015      21.806  26.185  53.367  0.00  0.00    -0.016 C 
ATOM     12  C14 LG1 d5015      20.958  24.857  53.517  0.00  0.00    -0.068 C 
ATOM     13  C15 LG1 d5015      20.243  24.561  54.587  0.00  0.00     0.053 C 
ATOM     14  C16 LG1 d5015      20.278  25.390  55.782  0.00  0.00     0.149 C 
ATOM     15  C17 LG1 d5015      21.228  26.581  55.859  0.00  0.00     0.084 C 
ATOM     16  C18 LG1 d5015      21.381  27.211  54.452  0.00  0.00     0.022 C 
ATOM     17  O2  LG1 d5015      19.589  25.094  56.775  0.00  0.00    -0.293 OA
ATOM     18  C19 LG1 d5015      20.948  23.887  52.341  0.00  0.00     0.035 C 
ATOM     19  C20 LG1 d5015      20.752  24.605  50.992  0.00  0.00     0.010 C 
ATOM     20  C21 LG1 d5015      23.317  25.769  53.539  0.00  0.00     0.020 C 
ENDROOT
BRANCH   4  21
ATOM     21  C7  LG1 d5015      22.614  29.166  47.013  0.00  0.00     0.128 C 
ATOM     22  O1  LG1 d5015      22.825  30.270  47.469  0.00  0.00    -0.298 OA
ATOM     23  C8  LG1 d5015      23.196  28.772  45.700  0.00  0.00     0.091 C 
ENDBRANCH   4  21
TORSDOF 1
ENDMDL
MODEL 3
REMARK VINA RESULT:    -7.373      1.396      7.163
REMARK INTER + INTRA:          -7.915
REMARK INTER:                  -7.785
REMARK INTRA:                  -0.131
REMARK UNBOUND:                -0.111
REMARK  1 active torsions:
REMARK  status: ('A' for Active; 'I' for Inactive)
REMARK    1  A    between atoms: C7_7  and  C4_4 
ROOT
ATOM      1  C1  LG1 d5015      22.159  25.926  50.463  0.00  0.00    -0.004 C 
ATOM      2  C2  LG1 d5015      21.362  25.876  51.771  0.00  0.00    -0.001 C 
ATOM      3  C3  LG1 d5015      19.981  25.136  51.622  0.00  0.00    -0.030 C 
ATOM      4  C4  LG1 d5015      19.516  25.205  53.114  0.00  0.00     0.063 C 
ATOM      5  C5  LG1 d5015      20.815  24.949  53.956  0.00  0.00     0.013 C 
ATOM      6  C6  LG1 d5015      22.030  25.193  52.990  0.00  0.00     0.006 C 
ATOM      7  C9  LG1 d5015      20.121  23.637  51.180  0.00  0.00     0.016 C 
ATOM      8  C10 LG1 d5015      19.157  25.977  50.620  0.00  0.00     0.011 C 
ATOM      9  C11 LG1 d5015      19.893  26.105  49.257  0.00  0.00     0.007 C 
ATOM     10  C12 LG1 d5015      21.311  26.715  49.411  0.00  0.00     0.002 C 
ATOM     11  C13 LG1 d5015      22.034  26.853  48.021  0.00  0.00    -0.016 C 
ATOM     12  C14 LG1 d5015      23.475  27.462  48.260  0.00  0.00    -0.068 C 
ATOM     13  C15 LG1 d5015      23.977  28.457  47.552  0.00  0.00     0.053 C 
ATOM     14  C16 LG1 d5015      23.280  28.999  46.396  0.00  0.00     0.149 C 
ATOM     15  C17 LG1 d5015      21.984  28.355  45.914  0.00  0.00     0.084 C 
ATOM     16  C18 LG1 d5015      21.196  27.808  47.130  0.00  0.00     0.022 C 
ATOM     17  O2  LG1 d5015      23.771  29.942  45.749  0.00  0.00    -0.293 OA
ATOM     18  C19 LG1 d5015      24.309  26.880  49.397  0.00  0.00     0.035 C 
ATOM     19  C20 LG1 d5015      23.489  26.690  50.687  0.00  0.00     0.010 C 
ATOM     20  C21 LG1 d5015      22.253  25.461  47.312  0.00  0.00     0.020 C 
ENDROOT
BRANCH   4  21
ATOM     21  C7  LG1 d5015      18.324  24.297  53.463  0.00  0.00     0.128 C 
ATOM     22  O1  LG1 d5015      18.511  23.215  53.976  0.00  0.00    -0.298 OA
ATOM     23  C8  LG1 d5015      16.939  24.761  53.174  0.00  0.00     0.091 C 
ENDBRANCH   4  21
TORSDOF 1
ENDMDL
MODEL 4
REMARK VINA RESULT:    -6.669      1.556      2.172
REMARK INTER + INTRA:          -7.170
REMARK INTER:                  -7.122
REMARK INTRA:                  -0.049
REMARK UNBOUND:                -0.111
REMARK  1 active torsions:
REMARK  status: ('A' for Active; 'I' for Inactive)
REMARK    1  A    between atoms: C7_7  and  C4_4 
ROOT
ATOM      1  C1  LG1 d5015      21.916  26.443  50.682  0.00  0.00    -0.004 C 
ATOM      2  C2  LG1 d5015      22.128  26.687  49.184  0.00  0.00    -0.001 C 
ATOM      3  C3  LG1 d5015      21.158  27.779  48.596  0.00  0.00    -0.030 C 
ATOM      4  C4  LG1 d5015      21.708  27.815  47.131  0.00  0.00     0.063 C 
ATOM      5  C5  LG1 d5015      23.265  27.691  47.278  0.00  0.00     0.013 C 
ATOM      6  C6  LG1 d5015      23.536  27.140  48.725  0.00  0.00     0.006 C 
ATOM      7  C9  LG1 d5015      21.333  29.190  49.261  0.00  0.00     0.016 C 
ATOM      8  C10 LG1 d5015      19.731  27.213  48.767  0.00  0.00     0.011 C 
ATOM      9  C11 LG1 d5015      19.422  26.911  50.260  0.00  0.00     0.007 C 
ATOM     10  C12 LG1 d5015      20.451  25.934  50.886  0.00  0.00     0.002 C 
ATOM     11  C13 LG1 d5015      20.114  25.627  52.392  0.00  0.00    -0.016 C 
ATOM     12  C14 LG1 d5015      21.213  24.643  52.965  0.00  0.00    -0.068 C 
ATOM     13  C15 LG1 d5015      20.933  23.560  53.667  0.00  0.00     0.053 C 
ATOM     14  C16 LG1 d5015      19.574  23.250  54.082  0.00  0.00     0.149 C 
ATOM     15  C17 LG1 d5015      18.443  24.232  53.792  0.00  0.00     0.084 C 
ATOM     16  C18 LG1 d5015      18.717  24.953  52.449  0.00  0.00     0.022 C 
ATOM     17  O2  LG1 d5015      19.335  22.220  54.737  0.00  0.00    -0.293 OA
ATOM     18  C19 LG1 d5015      22.673  24.955  52.653  0.00  0.00     0.035 C 
ATOM     19  C20 LG1 d5015      22.887  25.341  51.177  0.00  0.00     0.010 C 
ATOM     20  C21 LG1 d5015      20.159  26.917  53.298  0.00  0.00     0.020 C 
ENDROOT
BRANCH   4  21
ATOM     21  C7  LG1 d5015      21.226  29.008  46.289  0.00  0.00     0.128 C 
ATOM     22  O1  LG1 d5015      20.184  28.938  45.673  0.00  0.00    -0.298 OA
ATOM     23  C8  LG1 d5015      22.044  30.251  46.241  0.00  0.00     0.091 C 
ENDBRANCH   4  21
TORSDOF 1
ENDMDL
MODEL 5
REMARK VINA RESULT:    -6.546      1.254      7.204
REMARK INTER + INTRA:          -7.040
REMARK INTER:                  -6.929
REMARK INTRA:                  -0.111
REMARK UNBOUND:                -0.111
REMARK  1 active torsions:
REMARK  status: ('A' for Active; 'I' for Inactive)
REMARK    1  A    between atoms: C7_7  and  C4_4 
ROOT
ATOM      1  C1  LG1 d5015      19.367  26.146  51.714  0.00  0.00    -0.004 C 
ATOM      2  C2  LG1 d5015      18.611  25.000  52.396  0.00  0.00    -0.001 C 
ATOM      3  C3  LG1 d5015      19.305  24.509  53.721  0.00  0.00    -0.030 C 
ATOM      4  C4  LG1 d5015      18.247  23.442  54.158  0.00  0.00     0.063 C 
ATOM      5  C5  LG1 d5015      16.857  24.085  53.816  0.00  0.00     0.013 C 
ATOM      6  C6  LG1 d5015      17.141  25.257  52.807  0.00  0.00     0.006 C 
ATOM      7  C9  LG1 d5015      19.413  25.626  54.818  0.00  0.00     0.016 C 
ATOM      8  C10 LG1 d5015      20.684  23.957  53.297  0.00  0.00     0.011 C 
ATOM      9  C11 LG1 d5015      21.527  25.044  52.574  0.00  0.00     0.007 C 
ATOM     10  C12 LG1 d5015      20.794  25.628  51.338  0.00  0.00     0.002 C 
ATOM     11  C13 LG1 d5015      21.667  26.715  50.609  0.00  0.00    -0.016 C 
ATOM     12  C14 LG1 d5015      20.850  27.274  49.375  0.00  0.00    -0.068 C 
ATOM     13  C15 LG1 d5015      21.357  27.421  48.165  0.00  0.00     0.053 C 
ATOM     14  C16 LG1 d5015      22.769  27.191  47.896  0.00  0.00     0.149 C 
ATOM     15  C17 LG1 d5015      23.722  26.865  49.042  0.00  0.00     0.084 C 
ATOM     16  C18 LG1 d5015      22.974  26.037  50.116  0.00  0.00     0.022 C 
ATOM     17  O2  LG1 d5015      23.222  27.329  46.746  0.00  0.00    -0.293 OA
ATOM     18  C19 LG1 d5015      19.384  27.631  49.600  0.00  0.00     0.035 C 
ATOM     19  C20 LG1 d5015      18.637  26.552  50.408  0.00  0.00     0.010 C 
ATOM     20  C21 LG1 d5015      21.984  27.955  51.531  0.00  0.00     0.020 C 
ENDROOT
BRANCH   4  21
ATOM     21  C7  LG1 d5015      18.394  22.939  55.603  0.00  0.00     0.128 C 
ATOM     22  O1  LG1 d5015      19.193  22.066  55.867  0.00  0.00    -0.298 OA
ATOM     23  C8  LG1 d5015      17.554  23.537  56.677  0.00  0.00     0.091 C 
ENDBRANCH   4  21
TORSDOF 1
ENDMDL
