MODEL 1
REMARK VINA RESULT:    -7.415      0.000      0.000
REMARK INTER + INTRA:          -7.991
REMARK INTER:                  -7.796
REMARK INTRA:                  -0.195
REMARK UNBOUND:                -0.143
REMARK  1 active torsions:
REMARK  status: ('A' for Active; 'I' for Inactive)
REMARK    1  A    between atoms: C7_7  and  C4_4 
ROOT
ATOM      1  C1  LG1 d5015      21.204  25.808  52.311  0.00  0.00    -0.004 C 
ATOM      2  C2  LG1 d5015      22.153  25.799  51.108  0.00  0.00    -0.001 C 
ATOM      3  C3  LG1 d5015      21.530  26.475  49.829  0.00  0.00    -0.030 C 
ATOM      4  C4  LG1 d5015      22.767  26.359  48.878  0.00  0.00     0.063 C 
ATOM      5  C5  LG1 d5015      24.009  26.662  49.788  0.00  0.00     0.013 C 
ATOM      6  C6  LG1 d5015      23.527  26.492  51.274  0.00  0.00     0.006 C 
ATOM      7  C9  LG1 d5015      21.164  27.986  50.039  0.00  0.00     0.016 C 
ATOM      8  C10 LG1 d5015      20.305  25.613  49.450  0.00  0.00     0.011 C 
ATOM      9  C11 LG1 d5015      19.284  25.542  50.619  0.00  0.00     0.007 C 
ATOM     10  C12 LG1 d5015      19.924  24.998  51.923  0.00  0.00     0.002 C 
ATOM     11  C13 LG1 d5015      18.873  24.918  53.092  0.00  0.00    -0.016 C 
ATOM     12  C14 LG1 d5015      19.600  24.374  54.388  0.00  0.00    -0.068 C 
ATOM     13  C15 LG1 d5015      19.112  23.415  55.154  0.00  0.00     0.053 C 
ATOM     14  C16 LG1 d5015      17.786  22.861  54.932  0.00  0.00     0.149 C 
ATOM     15  C17 LG1 d5015      16.881  23.450  53.853  0.00  0.00     0.084 C 
ATOM     16  C18 LG1 d5015      17.746  23.939  52.665  0.00  0.00     0.022 C 
ATOM     17  O2  LG1 d5015      17.351  21.953  55.663  0.00  0.00    -0.293 OA
ATOM     18  C19 LG1 d5015      20.955  24.975  54.744  0.00  0.00     0.035 C 
ATOM     19  C20 LG1 d5015      21.878  25.105  53.517  0.00  0.00     0.010 C 
ATOM     20  C21 LG1 d5015      18.284  26.330  53.474  0.00  0.00     0.020 C 
ENDROOT
BRANCH   4  21
ATOM     21  C7  LG1 d5015      22.678  27.203  47.595  0.00  0.00     0.128 C 
ATOM     22  O1  LG1 d5015      21.910  26.889  46.711  0.00  0.00    -0.298 OA
ATOM     23  C8  LG1 d5015      23.536  28.413  47.452  0.00  0.00     0.091 C 
ENDBRANCH   4  21
TORSDOF 1
ENDMDL
MODEL 2
REMARK VINA RESULT:    -7.397      1.432      7.187
REMARK INTER + INTRA:          -7.972
REMARK INTER:                  -7.834
REMARK INTRA:                  -0.139
REMARK UNBOUND:                -0.143
REMARK  1 active torsions:
REMARK  status: ('A' for Active; 'I' for Inactive)
REMARK    1  A    between atoms: C7_7  and  C4_4 
ROOT
ATOM      1  C1  LG1 d5015      22.195  26.001  50.427  0.00  0.00    -0.004 C 
ATOM      2  C2  LG1 d5015      21.392  25.947  51.731  0.00  0.00    -0.001 C 
ATOM      3  C3  LG1 d5015      20.021  25.188  51.578  0.00  0.00    -0.030 C 
ATOM      4  C4  LG1 d5015      19.547  25.259  53.068  0.00  0.00     0.063 C 
ATOM      5  C5  LG1 d5015      20.845  25.027  53.919  0.00  0.00     0.013 C 
ATOM      6  C6  LG1 d5015      22.062  25.281  52.957  0.00  0.00     0.006 C 
ATOM      7  C9  LG1 d5015      20.185  23.688  51.147  0.00  0.00     0.016 C 
ATOM      8  C10 LG1 d5015      19.192  26.011  50.567  0.00  0.00     0.011 C 
ATOM      9  C11 LG1 d5015      19.934  26.142  49.207  0.00  0.00     0.007 C 
ATOM     10  C12 LG1 d5015      21.342  26.772  49.366  0.00  0.00     0.002 C 
ATOM     11  C13 LG1 d5015      22.071  26.911  47.978  0.00  0.00    -0.016 C 
ATOM     12  C14 LG1 d5015      23.502  27.541  48.222  0.00  0.00    -0.068 C 
ATOM     13  C15 LG1 d5015      23.995  28.539  47.511  0.00  0.00     0.053 C 
ATOM     14  C16 LG1 d5015      23.297  29.064  46.347  0.00  0.00     0.149 C 
ATOM     15  C17 LG1 d5015      22.012  28.400  45.862  0.00  0.00     0.084 C 
ATOM     16  C18 LG1 d5015      21.225  27.849  47.077  0.00  0.00     0.022 C 
ATOM     17  O2  LG1 d5015      23.778  30.009  45.697  0.00  0.00    -0.293 OA
ATOM     18  C19 LG1 d5015      24.338  26.978  49.367  0.00  0.00     0.035 C 
ATOM     19  C20 LG1 d5015      23.513  26.784  50.653  0.00  0.00     0.010 C 
ATOM     20  C21 LG1 d5015      22.313  25.518  47.279  0.00  0.00     0.020 C 
ENDROOT
BRANCH   4  21
ATOM     21  C7  LG1 d5015      18.366  24.338  53.416  0.00  0.00     0.128 C 
ATOM     22  O1  LG1 d5015      18.564  23.270  53.956  0.00  0.00    -0.298 OA
ATOM     23  C8  LG1 d5015      16.978  24.770  53.092  0.00  0.00     0.091 C 
ENDBRANCH   4  21
TORSDOF 1
ENDMDL
MODEL 3
REMARK VINA RESULT:    -7.351      2.074      3.318
REMARK INTER + INTRA:          -7.924
REMARK INTER:                  -7.732
REMARK INTRA:                  -0.192
REMARK UNBOUND:                -0.143
REMARK  1 active torsions:
REMARK  status: ('A' for Active; 'I' for Inactive)
REMARK    1  A    between atoms: C7_7  and  C4_4 
ROOT
ATOM      1  C1  LG1 d5015      21.721  25.795  50.781  0.00  0.00    -0.004 C 
ATOM      2  C2  LG1 d5015      21.391  26.516  49.470  0.00  0.00    -0.001 C 
ATOM      3  C3  LG1 d5015      22.319  27.759  49.202  0.00  0.00    -0.030 C 
ATOM      4  C4  LG1 d5015      21.764  28.166  47.796  0.00  0.00     0.063 C 
ATOM      5  C5  LG1 d5015      21.502  26.809  47.055  0.00  0.00     0.013 C 
ATOM      6  C6  LG1 d5015      21.468  25.693  48.161  0.00  0.00     0.006 C 
ATOM      7  C9  LG1 d5015      23.839  27.387  49.083  0.00  0.00     0.016 C 
ATOM      8  C10 LG1 d5015      22.038  28.752  50.351  0.00  0.00     0.011 C 
ATOM      9  C11 LG1 d5015      22.325  28.106  51.735  0.00  0.00     0.007 C 
ATOM     10  C12 LG1 d5015      21.509  26.806  51.956  0.00  0.00     0.002 C 
ATOM     11  C13 LG1 d5015      21.801  26.174  53.367  0.00  0.00    -0.016 C 
ATOM     12  C14 LG1 d5015      20.950  24.847  53.511  0.00  0.00    -0.068 C 
ATOM     13  C15 LG1 d5015      20.231  24.549  54.578  0.00  0.00     0.053 C 
ATOM     14  C16 LG1 d5015      20.264  25.375  55.775  0.00  0.00     0.149 C 
ATOM     15  C17 LG1 d5015      21.216  26.564  55.858  0.00  0.00     0.084 C 
ATOM     16  C18 LG1 d5015      21.375  27.197  54.454  0.00  0.00     0.022 C 
ATOM     17  O2  LG1 d5015      19.572  25.077  56.765  0.00  0.00    -0.293 OA
ATOM     18  C19 LG1 d5015      20.942  23.881  52.331  0.00  0.00     0.035 C 
ATOM     19  C20 LG1 d5015      20.750  24.603  50.984  0.00  0.00     0.010 C 
ATOM     20  C21 LG1 d5015      23.310  25.754  53.543  0.00  0.00     0.020 C 
ENDROOT
BRANCH   4  21
ATOM     21  C7  LG1 d5015      22.634  29.173  47.025  0.00  0.00     0.128 C 
ATOM     22  O1  LG1 d5015      22.843  30.275  47.484  0.00  0.00    -0.298 OA
ATOM     23  C8  LG1 d5015      23.223  28.780  45.714  0.00  0.00     0.091 C 
ENDBRANCH   4  21
TORSDOF 1
ENDMDL
MODEL 4
REMARK VINA RESULT:    -7.304      1.393      6.983
REMARK INTER + INTRA:          -7.874
REMARK INTER:                  -7.670
REMARK INTRA:                  -0.204
REMARK UNBOUND:                -0.143
REMARK  1 active torsions:
REMARK  status: ('A' for Active; 'I' for Inactive)
REMARK    1  A    between atoms: C7_7  and  C4_4 
ROOT
ATOM      1  C1  LG1 d5015      21.640  26.228  52.020  0.00  0.00    -0.004 C 
ATOM      2  C2  LG1 d5015      20.447  26.064  52.968  0.00  0.00    -0.001 C 
ATOM      3  C3  LG1 d5015      19.920  24.582  53.040  0.00  0.00    -0.030 C 
ATOM      4  C4  LG1 d5015      18.808  24.782  54.123  0.00  0.00     0.063 C 
ATOM      5  C5  LG1 d5015      19.428  25.782  55.161  0.00  0.00     0.013 C 
ATOM      6  C6  LG1 d5015      20.647  26.470  54.448  0.00  0.00     0.006 C 
ATOM      7  C9  LG1 d5015      20.993  23.564  53.567  0.00  0.00     0.016 C 
ATOM      8  C10 LG1 d5015      19.423  24.239  51.618  0.00  0.00     0.011 C 
ATOM      9  C11 LG1 d5015      20.562  24.395  50.572  0.00  0.00     0.007 C 
ATOM     10  C12 LG1 d5015      21.176  25.819  50.583  0.00  0.00     0.002 C 
ATOM     11  C13 LG1 d5015      22.316  25.964  49.508  0.00  0.00    -0.016 C 
ATOM     12  C14 LG1 d5015      22.905  27.431  49.592  0.00  0.00    -0.068 C 
ATOM     13  C15 LG1 d5015      23.115  28.198  48.537  0.00  0.00     0.053 C 
ATOM     14  C16 LG1 d5015      22.934  27.699  47.182  0.00  0.00     0.149 C 
ATOM     15  C17 LG1 d5015      22.587  26.232  46.948  0.00  0.00     0.084 C 
ATOM     16  C18 LG1 d5015      21.695  25.721  48.107  0.00  0.00     0.022 C 
ATOM     17  O2  LG1 d5015      23.132  28.443  46.205  0.00  0.00    -0.293 OA
ATOM     18  C19 LG1 d5015      23.212  27.992  50.976  0.00  0.00     0.035 C 
ATOM     19  C20 LG1 d5015      22.081  27.714  51.985  0.00  0.00     0.010 C 
ATOM     20  C21 LG1 d5015      23.525  24.986  49.771  0.00  0.00     0.020 C 
ENDROOT
BRANCH   4  21
ATOM     21  C7  LG1 d5015      18.249  23.482  54.724  0.00  0.00     0.128 C 
ATOM     22  O1  LG1 d5015      17.582  22.732  54.042  0.00  0.00    -0.298 OA
ATOM     23  C8  LG1 d5015      18.539  23.146  56.146  0.00  0.00     0.091 C 
ENDBRANCH   4  21
TORSDOF 1
ENDMDL
MODEL 5
REMARK VINA RESULT:    -6.487      2.771      6.553
REMARK INTER + INTRA:          -7.010
REMARK INTER:                  -6.866
REMARK INTRA:                  -0.143
REMARK UNBOUND:                -0.143
REMARK  1 active torsions:
REMARK  status: ('A' for Active; 'I' for Inactive)
REMARK    1  A    between atoms: C7_7  and  C4_4 
ROOT
ATOM      1  C1  LG1 d5015      20.586  26.728  51.445  0.00  0.00    -0.004 C 
ATOM      2  C2  LG1 d5015      20.647  26.436  52.948  0.00  0.00    -0.001 C 
ATOM      3  C3  LG1 d5015      21.959  26.979  53.628  0.00  0.00    -0.030 C 
ATOM      4  C4  LG1 d5015      21.635  26.588  55.108  0.00  0.00     0.063 C 
ATOM      5  C5  LG1 d5015      20.103  26.883  55.280  0.00  0.00     0.013 C 
ATOM      6  C6  LG1 d5015      19.502  26.990  53.832  0.00  0.00     0.006 C 
ATOM      7  C9  LG1 d5015      22.119  28.537  53.516  0.00  0.00     0.016 C 
ATOM      8  C10 LG1 d5015      23.126  26.212  52.968  0.00  0.00     0.011 C 
ATOM      9  C11 LG1 d5015      23.141  26.429  51.429  0.00  0.00     0.007 C 
ATOM     10  C12 LG1 d5015      21.802  26.016  50.765  0.00  0.00     0.002 C 
ATOM     11  C13 LG1 d5015      21.841  26.227  49.206  0.00  0.00    -0.016 C 
ATOM     12  C14 LG1 d5015      20.440  25.803  48.605  0.00  0.00    -0.068 C 
ATOM     13  C15 LG1 d5015      20.301  25.029  47.544  0.00  0.00     0.053 C 
ATOM     14  C16 LG1 d5015      21.447  24.598  46.759  0.00  0.00     0.149 C 
ATOM     15  C17 LG1 d5015      22.842  25.117  47.093  0.00  0.00     0.084 C 
ATOM     16  C18 LG1 d5015      22.962  25.326  48.623  0.00  0.00     0.022 C 
ATOM     17  O2  LG1 d5015      21.291  23.862  45.768  0.00  0.00    -0.293 OA
ATOM     18  C19 LG1 d5015      19.185  26.297  49.318  0.00  0.00     0.035 C 
ATOM     19  C20 LG1 d5015      19.282  26.141  50.848  0.00  0.00     0.010 C 
ATOM     20  C21 LG1 d5015      22.058  27.736  48.805  0.00  0.00     0.020 C 
ENDROOT
BRANCH   4  21
ATOM     21  C7  LG1 d5015      22.546  27.238  56.163  0.00  0.00     0.128 C 
ATOM     22  O1  LG1 d5015      22.103  28.078  56.917  0.00  0.00    -0.298 OA
ATOM     23  C8  LG1 d5015      23.973  26.822  56.256  0.00  0.00     0.091 C 
ENDBRANCH   4  21
TORSDOF 1
ENDMDL
