REMARK INTER + INTRA:          -7.991
REMARK INTER:                  -7.796
REMARK INTRA:                  -0.195
REMARK UNBOUND:                -0.143
REMARK  1 active torsions:
REMARK  status: ('A' for Active; 'I' for Inactive)
REMARK    1  A    between atoms: C7_7  and  C4_4 
ROOT
ATOM      1  C1  LG1 d5015      21.204  25.808  52.311  0.00  0.00    -0.004 C 
ATOM      2  C2  LG1 d5015      22.153  25.799  51.108  0.00  0.00    -0.001 C 
ATOM      3  C3  LG1 d5015      21.530  26.475  49.829  0.00  0.00    -0.030 C 
ATOM      4  C4  LG1 d5015      22.767  26.359  48.878  0.00  0.00     0.063 C 
ATOM      5  C5  LG1 d5015      24.009  26.662  49.788  0.00  0.00     0.013 C 
ATOM      6  C6  LG1 d5015      23.527  26.492  51.274  0.00  0.00     0.006 C 
ATOM      7  C9  LG1 d5015      21.164  27.986  50.039  0.00  0.00     0.016 C 
ATOM      8  C10 LG1 d5015      20.305  25.613  49.450  0.00  0.00     0.011 C 
ATOM      9  C11 LG1 d5015      19.284  25.542  50.619  0.00  0.00     0.007 C 
ATOM     10  C12 LG1 d5015      19.924  24.998  51.923  0.00  0.00     0.002 C 
ATOM     11  C13 LG1 d5015      18.873  24.918  53.092  0.00  0.00    -0.016 C 
ATOM     12  C14 LG1 d5015      19.600  24.374  54.388  0.00  0.00    -0.068 C 
ATOM     13  C15 LG1 d5015      19.112  23.415  55.154  0.00  0.00     0.053 C 
ATOM     14  C16 LG1 d5015      17.786  22.861  54.932  0.00  0.00     0.149 C 
ATOM     15  C17 LG1 d5015      16.881  23.450  53.853  0.00  0.00     0.084 C 
ATOM     16  C18 LG1 d5015      17.746  23.939  52.665  0.00  0.00     0.022 C 
ATOM     17  O2  LG1 d5015      17.351  21.953  55.663  0.00  0.00    -0.293 OA
ATOM     18  C19 LG1 d5015      20.955  24.975  54.744  0.00  0.00     0.035 C 
ATOM     19  C20 LG1 d5015      21.878  25.105  53.517  0.00  0.00     0.010 C 
ATOM     20  C21 LG1 d5015      18.284  26.330  53.474  0.00  0.00     0.020 C 
ENDROOT
BRANCH   4  21
ATOM     21  C7  LG1 d5015      22.678  27.203  47.595  0.00  0.00     0.128 C 
ATOM     22  O1  LG1 d5015      21.910  26.889  46.711  0.00  0.00    -0.298 OA
ATOM     23  C8  LG1 d5015      23.536  28.413  47.452  0.00  0.00     0.091 C 
ENDBRANCH   4  21
TORSDOF 1
ENDMDL
