REMARK INTER + INTRA:          -7.040
REMARK INTER:                  -6.929
REMARK INTRA:                  -0.111
REMARK UNBOUND:                -0.111
REMARK  1 active torsions:
REMARK  status: ('A' for Active; 'I' for Inactive)
REMARK    1  A    between atoms: C7_7  and  C4_4 
ROOT
ATOM      1  C1  LG1 d5015      19.367  26.146  51.714  0.00  0.00    -0.004 C 
ATOM      2  C2  LG1 d5015      18.611  25.000  52.396  0.00  0.00    -0.001 C 
ATOM      3  C3  LG1 d5015      19.305  24.509  53.721  0.00  0.00    -0.030 C 
ATOM      4  C4  LG1 d5015      18.247  23.442  54.158  0.00  0.00     0.063 C 
ATOM      5  C5  LG1 d5015      16.857  24.085  53.816  0.00  0.00     0.013 C 
ATOM      6  C6  LG1 d5015      17.141  25.257  52.807  0.00  0.00     0.006 C 
ATOM      7  C9  LG1 d5015      19.413  25.626  54.818  0.00  0.00     0.016 C 
ATOM      8  C10 LG1 d5015      20.684  23.957  53.297  0.00  0.00     0.011 C 
ATOM      9  C11 LG1 d5015      21.527  25.044  52.574  0.00  0.00     0.007 C 
ATOM     10  C12 LG1 d5015      20.794  25.628  51.338  0.00  0.00     0.002 C 
ATOM     11  C13 LG1 d5015      21.667  26.715  50.609  0.00  0.00    -0.016 C 
ATOM     12  C14 LG1 d5015      20.850  27.274  49.375  0.00  0.00    -0.068 C 
ATOM     13  C15 LG1 d5015      21.357  27.421  48.165  0.00  0.00     0.053 C 
ATOM     14  C16 LG1 d5015      22.769  27.191  47.896  0.00  0.00     0.149 C 
ATOM     15  C17 LG1 d5015      23.722  26.865  49.042  0.00  0.00     0.084 C 
ATOM     16  C18 LG1 d5015      22.974  26.037  50.116  0.00  0.00     0.022 C 
ATOM     17  O2  LG1 d5015      23.222  27.329  46.746  0.00  0.00    -0.293 OA
ATOM     18  C19 LG1 d5015      19.384  27.631  49.600  0.00  0.00     0.035 C 
ATOM     19  C20 LG1 d5015      18.637  26.552  50.408  0.00  0.00     0.010 C 
ATOM     20  C21 LG1 d5015      21.984  27.955  51.531  0.00  0.00     0.020 C 
ENDROOT
BRANCH   4  21
ATOM     21  C7  LG1 d5015      18.394  22.939  55.603  0.00  0.00     0.128 C 
ATOM     22  O1  LG1 d5015      19.193  22.066  55.867  0.00  0.00    -0.298 OA
ATOM     23  C8  LG1 d5015      17.554  23.537  56.677  0.00  0.00     0.091 C 
ENDBRANCH   4  21
TORSDOF 1
ENDMDL
