REMARK INTER + INTRA:          -7.972
REMARK INTER:                  -7.834
REMARK INTRA:                  -0.139
REMARK UNBOUND:                -0.143
REMARK  1 active torsions:
REMARK  status: ('A' for Active; 'I' for Inactive)
REMARK    1  A    between atoms: C7_7  and  C4_4 
ROOT
ATOM      1  C1  LG1 d5015      22.195  26.001  50.427  0.00  0.00    -0.004 C 
ATOM      2  C2  LG1 d5015      21.392  25.947  51.731  0.00  0.00    -0.001 C 
ATOM      3  C3  LG1 d5015      20.021  25.188  51.578  0.00  0.00    -0.030 C 
ATOM      4  C4  LG1 d5015      19.547  25.259  53.068  0.00  0.00     0.063 C 
ATOM      5  C5  LG1 d5015      20.845  25.027  53.919  0.00  0.00     0.013 C 
ATOM      6  C6  LG1 d5015      22.062  25.281  52.957  0.00  0.00     0.006 C 
ATOM      7  C9  LG1 d5015      20.185  23.688  51.147  0.00  0.00     0.016 C 
ATOM      8  C10 LG1 d5015      19.192  26.011  50.567  0.00  0.00     0.011 C 
ATOM      9  C11 LG1 d5015      19.934  26.142  49.207  0.00  0.00     0.007 C 
ATOM     10  C12 LG1 d5015      21.342  26.772  49.366  0.00  0.00     0.002 C 
ATOM     11  C13 LG1 d5015      22.071  26.911  47.978  0.00  0.00    -0.016 C 
ATOM     12  C14 LG1 d5015      23.502  27.541  48.222  0.00  0.00    -0.068 C 
ATOM     13  C15 LG1 d5015      23.995  28.539  47.511  0.00  0.00     0.053 C 
ATOM     14  C16 LG1 d5015      23.297  29.064  46.347  0.00  0.00     0.149 C 
ATOM     15  C17 LG1 d5015      22.012  28.400  45.862  0.00  0.00     0.084 C 
ATOM     16  C18 LG1 d5015      21.225  27.849  47.077  0.00  0.00     0.022 C 
ATOM     17  O2  LG1 d5015      23.778  30.009  45.697  0.00  0.00    -0.293 OA
ATOM     18  C19 LG1 d5015      24.338  26.978  49.367  0.00  0.00     0.035 C 
ATOM     19  C20 LG1 d5015      23.513  26.784  50.653  0.00  0.00     0.010 C 
ATOM     20  C21 LG1 d5015      22.313  25.518  47.279  0.00  0.00     0.020 C 
ENDROOT
BRANCH   4  21
ATOM     21  C7  LG1 d5015      18.366  24.338  53.416  0.00  0.00     0.128 C 
ATOM     22  O1  LG1 d5015      18.564  23.270  53.956  0.00  0.00    -0.298 OA
ATOM     23  C8  LG1 d5015      16.978  24.770  53.092  0.00  0.00     0.091 C 
ENDBRANCH   4  21
TORSDOF 1
ENDMDL
