REMARK INTER + INTRA:          -7.989
REMARK INTER:                  -7.796
REMARK INTRA:                  -0.193
REMARK UNBOUND:                -0.111
REMARK  1 active torsions:
REMARK  status: ('A' for Active; 'I' for Inactive)
REMARK    1  A    between atoms: C7_7  and  C4_4 
ROOT
ATOM      1  C1  LG1 d5015      21.185  25.847  52.300  0.00  0.00    -0.004 C 
ATOM      2  C2  LG1 d5015      22.138  25.830  51.100  0.00  0.00    -0.001 C 
ATOM      3  C3  LG1 d5015      21.513  26.481  49.810  0.00  0.00    -0.030 C 
ATOM      4  C4  LG1 d5015      22.755  26.365  48.865  0.00  0.00     0.063 C 
ATOM      5  C5  LG1 d5015      23.991  26.693  49.775  0.00  0.00     0.013 C 
ATOM      6  C6  LG1 d5015      23.505  26.540  51.262  0.00  0.00     0.006 C 
ATOM      7  C9  LG1 d5015      21.131  27.992  49.997  0.00  0.00     0.016 C 
ATOM      8  C10 LG1 d5015      20.299  25.602  49.438  0.00  0.00     0.011 C 
ATOM      9  C11 LG1 d5015      19.275  25.537  50.606  0.00  0.00     0.007 C 
ATOM     10  C12 LG1 d5015      19.915  25.018  51.919  0.00  0.00     0.002 C 
ATOM     11  C13 LG1 d5015      18.860  24.944  53.085  0.00  0.00    -0.016 C 
ATOM     12  C14 LG1 d5015      19.588  24.426  54.391  0.00  0.00    -0.068 C 
ATOM     13  C15 LG1 d5015      19.108  23.473  55.170  0.00  0.00     0.053 C 
ATOM     14  C16 LG1 d5015      17.788  22.902  54.950  0.00  0.00     0.149 C 
ATOM     15  C17 LG1 d5015      16.881  23.466  53.861  0.00  0.00     0.084 C 
ATOM     16  C18 LG1 d5015      17.745  23.947  52.669  0.00  0.00     0.022 C 
ATOM     17  O2  LG1 d5015      17.360  22.001  55.693  0.00  0.00    -0.293 OA
ATOM     18  C19 LG1 d5015      20.936  25.046  54.743  0.00  0.00     0.035 C 
ATOM     19  C20 LG1 d5015      21.862  25.168  53.518  0.00  0.00     0.010 C 
ATOM     20  C21 LG1 d5015      18.255  26.355  53.445  0.00  0.00     0.020 C 
ENDROOT
BRANCH   4  21
ATOM     21  C7  LG1 d5015      22.662  27.190  47.570  0.00  0.00     0.128 C 
ATOM     22  O1  LG1 d5015      21.902  26.855  46.687  0.00  0.00    -0.298 OA
ATOM     23  C8  LG1 d5015      23.507  28.406  47.413  0.00  0.00     0.091 C 
ENDBRANCH   4  21
TORSDOF 1
ENDMDL
