REMARK INTER + INTRA:          -7.923
REMARK INTER:                  -7.731
REMARK INTRA:                  -0.192
REMARK UNBOUND:                -0.150
REMARK  1 active torsions:
REMARK  status: ('A' for Active; 'I' for Inactive)
REMARK    1  A    between atoms: C7_7  and  C4_4 
ROOT
ATOM      1  C1  LG1 d5015      21.722  25.803  50.783  0.00  0.00    -0.004 C 
ATOM      2  C2  LG1 d5015      21.391  26.521  49.471  0.00  0.00    -0.001 C 
ATOM      3  C3  LG1 d5015      22.319  27.764  49.200  0.00  0.00    -0.030 C 
ATOM      4  C4  LG1 d5015      21.764  28.168  47.794  0.00  0.00     0.063 C 
ATOM      5  C5  LG1 d5015      21.502  26.809  47.055  0.00  0.00     0.013 C 
ATOM      6  C6  LG1 d5015      21.469  25.696  48.163  0.00  0.00     0.006 C 
ATOM      7  C9  LG1 d5015      23.839  27.392  49.082  0.00  0.00     0.016 C 
ATOM      8  C10 LG1 d5015      22.038  28.760  50.348  0.00  0.00     0.011 C 
ATOM      9  C11 LG1 d5015      22.325  28.116  51.733  0.00  0.00     0.007 C 
ATOM     10  C12 LG1 d5015      21.510  26.816  51.956  0.00  0.00     0.002 C 
ATOM     11  C13 LG1 d5015      21.801  26.187  53.368  0.00  0.00    -0.016 C 
ATOM     12  C14 LG1 d5015      20.951  24.860  53.515  0.00  0.00    -0.068 C 
ATOM     13  C15 LG1 d5015      20.232  24.564  54.582  0.00  0.00     0.053 C 
ATOM     14  C16 LG1 d5015      20.264  25.392  55.778  0.00  0.00     0.149 C 
ATOM     15  C17 LG1 d5015      21.217  26.582  55.859  0.00  0.00     0.084 C 
ATOM     16  C18 LG1 d5015      21.375  27.212  54.453  0.00  0.00     0.022 C 
ATOM     17  O2  LG1 d5015      19.573  25.096  56.769  0.00  0.00    -0.293 OA
ATOM     18  C19 LG1 d5015      20.943  23.892  52.337  0.00  0.00     0.035 C 
ATOM     19  C20 LG1 d5015      20.751  24.612  50.988  0.00  0.00     0.010 C 
ATOM     20  C21 LG1 d5015      23.311  25.768  53.545  0.00  0.00     0.020 C 
ENDROOT
BRANCH   4  21
ATOM     21  C7  LG1 d5015      22.633  29.174  47.020  0.00  0.00     0.128 C 
ATOM     22  O1  LG1 d5015      22.843  30.277  47.477  0.00  0.00    -0.298 OA
ATOM     23  C8  LG1 d5015      23.223  28.778  45.710  0.00  0.00     0.091 C 
ENDBRANCH   4  21
TORSDOF 1
ENDMDL
