MODEL 1
REMARK VINA RESULT:    -7.359      0.000      0.000
REMARK INTER + INTRA:          -7.991
REMARK INTER:                  -7.798
REMARK INTRA:                  -0.193
REMARK UNBOUND:                -0.202
REMARK  1 active torsions:
REMARK  status: ('A' for Active; 'I' for Inactive)
REMARK    1  A    between atoms: C7_7  and  C4_4 
ROOT
ATOM      1  C1  LG1 d5015      21.203  25.841  52.280  0.00  0.00    -0.004 C 
ATOM      2  C2  LG1 d5015      22.134  25.828  51.063  0.00  0.00    -0.001 C 
ATOM      3  C3  LG1 d5015      21.485  26.478  49.785  0.00  0.00    -0.030 C 
ATOM      4  C4  LG1 d5015      22.710  26.366  48.818  0.00  0.00     0.063 C 
ATOM      5  C5  LG1 d5015      23.960  26.697  49.706  0.00  0.00     0.013 C 
ATOM      6  C6  LG1 d5015      23.501  26.541  51.201  0.00  0.00     0.006 C 
ATOM      7  C9  LG1 d5015      21.102  27.988  49.981  0.00  0.00     0.016 C 
ATOM      8  C10 LG1 d5015      20.266  25.596  49.435  0.00  0.00     0.011 C 
ATOM      9  C11 LG1 d5015      19.263  25.528  50.620  0.00  0.00     0.007 C 
ATOM     10  C12 LG1 d5015      19.927  25.009  51.921  0.00  0.00     0.002 C 
ATOM     11  C13 LG1 d5015      18.894  24.931  53.105  0.00  0.00    -0.016 C 
ATOM     12  C14 LG1 d5015      19.647  24.413  54.398  0.00  0.00    -0.068 C 
ATOM     13  C15 LG1 d5015      19.183  23.459  55.184  0.00  0.00     0.053 C 
ATOM     14  C16 LG1 d5015      17.860  22.884  54.988  0.00  0.00     0.149 C 
ATOM     15  C17 LG1 d5015      16.933  23.448  53.915  0.00  0.00     0.084 C 
ATOM     16  C18 LG1 d5015      17.775  23.932  52.708  0.00  0.00     0.022 C 
ATOM     17  O2  LG1 d5015      17.448  21.981  55.737  0.00  0.00    -0.293 OA
ATOM     18  C19 LG1 d5015      20.999  25.036  54.727  0.00  0.00     0.035 C 
ATOM     19  C20 LG1 d5015      21.903  25.162  53.485  0.00  0.00     0.010 C 
ATOM     20  C21 LG1 d5015      18.292  26.340  53.478  0.00  0.00     0.020 C 
ENDROOT
BRANCH   4  21
ATOM     21  C7  LG1 d5015      22.591  27.192  47.526  0.00  0.00     0.128 C 
ATOM     22  O1  LG1 d5015      21.822  26.851  46.652  0.00  0.00    -0.298 OA
ATOM     23  C8  LG1 d5015      23.422  28.417  47.359  0.00  0.00     0.091 C 
ENDBRANCH   4  21
TORSDOF 1
ENDMDL
MODEL 2
REMARK VINA RESULT:    -7.301      2.054      3.297
REMARK INTER + INTRA:          -7.930
REMARK INTER:                  -7.738
REMARK INTRA:                  -0.192
REMARK UNBOUND:                -0.202
REMARK  1 active torsions:
REMARK  status: ('A' for Active; 'I' for Inactive)
REMARK    1  A    between atoms: C7_7  and  C4_4 
ROOT
ATOM      1  C1  LG1 d5015      21.721  25.802  50.784  0.00  0.00    -0.004 C 
ATOM      2  C2  LG1 d5015      21.391  26.521  49.472  0.00  0.00    -0.001 C 
ATOM      3  C3  LG1 d5015      22.320  27.763  49.201  0.00  0.00    -0.030 C 
ATOM      4  C4  LG1 d5015      21.765  28.168  47.795  0.00  0.00     0.063 C 
ATOM      5  C5  LG1 d5015      21.501  26.809  47.056  0.00  0.00     0.013 C 
ATOM      6  C6  LG1 d5015      21.467  25.695  48.165  0.00  0.00     0.006 C 
ATOM      7  C9  LG1 d5015      23.840  27.389  49.082  0.00  0.00     0.016 C 
ATOM      8  C10 LG1 d5015      22.041  28.759  50.349  0.00  0.00     0.011 C 
ATOM      9  C11 LG1 d5015      22.328  28.115  51.734  0.00  0.00     0.007 C 
ATOM     10  C12 LG1 d5015      21.511  26.815  51.957  0.00  0.00     0.002 C 
ATOM     11  C13 LG1 d5015      21.802  26.186  53.369  0.00  0.00    -0.016 C 
ATOM     12  C14 LG1 d5015      20.950  24.860  53.516  0.00  0.00    -0.068 C 
ATOM     13  C15 LG1 d5015      20.231  24.565  54.584  0.00  0.00     0.053 C 
ATOM     14  C16 LG1 d5015      20.266  25.393  55.780  0.00  0.00     0.149 C 
ATOM     15  C17 LG1 d5015      21.219  26.581  55.860  0.00  0.00     0.084 C 
ATOM     16  C18 LG1 d5015      21.378  27.212  54.455  0.00  0.00     0.022 C 
ATOM     17  O2  LG1 d5015      19.574  25.097  56.771  0.00  0.00    -0.293 OA
ATOM     18  C19 LG1 d5015      20.941  23.892  52.339  0.00  0.00     0.035 C 
ATOM     19  C20 LG1 d5015      20.749  24.612  50.990  0.00  0.00     0.010 C 
ATOM     20  C21 LG1 d5015      23.312  25.765  53.545  0.00  0.00     0.020 C 
ENDROOT
BRANCH   4  21
ATOM     21  C7  LG1 d5015      22.635  29.172  47.021  0.00  0.00     0.128 C 
ATOM     22  O1  LG1 d5015      22.846  30.275  47.478  0.00  0.00    -0.298 OA
ATOM     23  C8  LG1 d5015      23.222  28.777  45.711  0.00  0.00     0.091 C 
ENDBRANCH   4  21
TORSDOF 1
ENDMDL
MODEL 3
REMARK VINA RESULT:    -7.286      1.381      7.159
REMARK INTER + INTRA:          -7.914
REMARK INTER:                  -7.780
REMARK INTRA:                  -0.134
REMARK UNBOUND:                -0.202
REMARK  1 active torsions:
REMARK  status: ('A' for Active; 'I' for Inactive)
REMARK    1  A    between atoms: C7_7  and  C4_4 
ROOT
ATOM      1  C1  LG1 d5015      22.206  25.911  50.481  0.00  0.00    -0.004 C 
ATOM      2  C2  LG1 d5015      21.406  25.852  51.788  0.00  0.00    -0.001 C 
ATOM      3  C3  LG1 d5015      20.044  25.078  51.639  0.00  0.00    -0.030 C 
ATOM      4  C4  LG1 d5015      19.572  25.147  53.130  0.00  0.00     0.063 C 
ATOM      5  C5  LG1 d5015      20.875  24.930  53.978  0.00  0.00     0.013 C 
ATOM      6  C6  LG1 d5015      22.087  25.195  53.013  0.00  0.00     0.006 C 
ATOM      7  C9  LG1 d5015      20.222  23.579  51.210  0.00  0.00     0.016 C 
ATOM      8  C10 LG1 d5015      19.204  25.890  50.628  0.00  0.00     0.011 C 
ATOM      9  C11 LG1 d5015      19.941  26.026  49.267  0.00  0.00     0.007 C 
ATOM     10  C12 LG1 d5015      21.342  26.671  49.421  0.00  0.00     0.002 C 
ATOM     11  C13 LG1 d5015      22.067  26.815  48.031  0.00  0.00    -0.016 C 
ATOM     12  C14 LG1 d5015      23.492  27.461  48.271  0.00  0.00    -0.068 C 
ATOM     13  C15 LG1 d5015      23.972  28.463  47.556  0.00  0.00     0.053 C 
ATOM     14  C16 LG1 d5015      23.266  28.978  46.393  0.00  0.00     0.149 C 
ATOM     15  C17 LG1 d5015      21.987  28.299  45.912  0.00  0.00     0.084 C 
ATOM     16  C18 LG1 d5015      21.209  27.742  47.130  0.00  0.00     0.022 C 
ATOM     17  O2  LG1 d5015      23.736  29.927  45.740  0.00  0.00    -0.293 OA
ATOM     18  C19 LG1 d5015      24.336  26.909  49.414  0.00  0.00     0.035 C 
ATOM     19  C20 LG1 d5015      23.516  26.709  50.703  0.00  0.00     0.010 C 
ATOM     20  C21 LG1 d5015      22.322  25.424  47.334  0.00  0.00     0.020 C 
ENDROOT
BRANCH   4  21
ATOM     21  C7  LG1 d5015      18.402  24.213  53.482  0.00  0.00     0.128 C 
ATOM     22  O1  LG1 d5015      18.613  23.144  54.014  0.00  0.00    -0.298 OA
ATOM     23  C8  LG1 d5015      17.008  24.636  53.173  0.00  0.00     0.091 C 
ENDBRANCH   4  21
TORSDOF 1
ENDMDL
MODEL 4
REMARK VINA RESULT:    -7.235      1.390      6.984
REMARK INTER + INTRA:          -7.861
REMARK INTER:                  -7.665
REMARK INTRA:                  -0.196
REMARK UNBOUND:                -0.202
REMARK  1 active torsions:
REMARK  status: ('A' for Active; 'I' for Inactive)
REMARK    1  A    between atoms: C7_7  and  C4_4 
ROOT
ATOM      1  C1  LG1 d5015      21.555  26.216  51.981  0.00  0.00    -0.004 C 
ATOM      2  C2  LG1 d5015      20.355  26.028  52.915  0.00  0.00    -0.001 C 
ATOM      3  C3  LG1 d5015      19.876  24.531  53.005  0.00  0.00    -0.030 C 
ATOM      4  C4  LG1 d5015      18.743  24.712  54.069  0.00  0.00     0.063 C 
ATOM      5  C5  LG1 d5015      19.314  25.749  55.099  0.00  0.00     0.013 C 
ATOM      6  C6  LG1 d5015      20.521  26.465  54.391  0.00  0.00     0.006 C 
ATOM      7  C9  LG1 d5015      20.974  23.558  53.563  0.00  0.00     0.016 C 
ATOM      8  C10 LG1 d5015      19.410  24.149  51.583  0.00  0.00     0.011 C 
ATOM      9  C11 LG1 d5015      20.558  24.326  50.550  0.00  0.00     0.007 C 
ATOM     10  C12 LG1 d5015      21.125  25.769  50.545  0.00  0.00     0.002 C 
ATOM     11  C13 LG1 d5015      22.275  25.933  49.483  0.00  0.00    -0.016 C 
ATOM     12  C14 LG1 d5015      22.814  27.420  49.550  0.00  0.00    -0.068 C 
ATOM     13  C15 LG1 d5015      23.013  28.176  48.486  0.00  0.00     0.053 C 
ATOM     14  C16 LG1 d5015      22.868  27.650  47.137  0.00  0.00     0.149 C 
ATOM     15  C17 LG1 d5015      22.572  26.168  46.922  0.00  0.00     0.084 C 
ATOM     16  C18 LG1 d5015      21.681  25.647  48.078  0.00  0.00     0.022 C 
ATOM     17  O2  LG1 d5015      23.055  28.383  46.151  0.00  0.00    -0.293 OA
ATOM     18  C19 LG1 d5015      23.083  28.014  50.928  0.00  0.00     0.035 C 
ATOM     19  C20 LG1 d5015      21.948  27.715  51.927  0.00  0.00     0.010 C 
ATOM     20  C21 LG1 d5015      23.511  25.000  49.779  0.00  0.00     0.020 C 
ENDROOT
BRANCH   4  21
ATOM     21  C7  LG1 d5015      18.218  23.404  54.684  0.00  0.00     0.128 C 
ATOM     22  O1  LG1 d5015      17.546  22.644  54.020  0.00  0.00    -0.298 OA
ATOM     23  C8  LG1 d5015      18.548  23.074  56.099  0.00  0.00     0.091 C 
ENDBRANCH   4  21
TORSDOF 1
ENDMDL
MODEL 5
REMARK VINA RESULT:    -6.723      1.460      2.009
REMARK INTER + INTRA:          -7.319
REMARK INTER:                  -7.117
REMARK INTRA:                  -0.202
REMARK UNBOUND:                -0.202
REMARK  1 active torsions:
REMARK  status: ('A' for Active; 'I' for Inactive)
REMARK    1  A    between atoms: C7_7  and  C4_4 
ROOT
ATOM      1  C1  LG1 d5015      21.836  26.143  50.879  0.00  0.00    -0.004 C 
ATOM      2  C2  LG1 d5015      21.938  26.432  49.378  0.00  0.00    -0.001 C 
ATOM      3  C3  LG1 d5015      21.136  27.715  48.944  0.00  0.00    -0.030 C 
ATOM      4  C4  LG1 d5015      21.532  27.738  47.430  0.00  0.00     0.063 C 
ATOM      5  C5  LG1 d5015      23.045  27.323  47.400  0.00  0.00     0.013 C 
ATOM      6  C6  LG1 d5015      23.352  26.648  48.785  0.00  0.00     0.006 C 
ATOM      7  C9  LG1 d5015      21.638  29.029  49.641  0.00  0.00     0.016 C 
ATOM      8  C10 LG1 d5015      19.652  27.410  49.249  0.00  0.00     0.011 C 
ATOM      9  C11 LG1 d5015      19.444  27.082  50.754  0.00  0.00     0.007 C 
ATOM     10  C12 LG1 d5015      20.330  25.898  51.223  0.00  0.00     0.002 C 
ATOM     11  C13 LG1 d5015      20.095  25.570  52.744  0.00  0.00    -0.016 C 
ATOM     12  C14 LG1 d5015      21.042  24.369  53.153  0.00  0.00    -0.068 C 
ATOM     13  C15 LG1 d5015      20.636  23.316  53.839  0.00  0.00     0.053 C 
ATOM     14  C16 LG1 d5015      19.292  23.234  54.388  0.00  0.00     0.149 C 
ATOM     15  C17 LG1 d5015      18.341  24.422  54.263  0.00  0.00     0.084 C 
ATOM     16  C18 LG1 d5015      18.609  25.159  52.928  0.00  0.00     0.022 C 
ATOM     17  O2  LG1 d5015      18.931  22.229  55.025  0.00  0.00    -0.293 OA
ATOM     18  C19 LG1 d5015      22.495  24.427  52.695  0.00  0.00     0.035 C 
ATOM     19  C20 LG1 d5015      22.628  24.855  51.221  0.00  0.00     0.010 C 
ATOM     20  C21 LG1 d5015      20.472  26.774  53.689  0.00  0.00     0.020 C 
ENDROOT
BRANCH   4  21
ATOM     21  C7  LG1 d5015      21.199  29.046  46.694  0.00  0.00     0.128 C 
ATOM     22  O1  LG1 d5015      20.046  29.395  46.561  0.00  0.00    -0.298 OA
ATOM     23  C8  LG1 d5015      22.305  29.884  46.152  0.00  0.00     0.091 C 
ENDBRANCH   4  21
TORSDOF 1
ENDMDL
