REMARK INTER + INTRA:          -6.629
REMARK INTER:                  -6.462
REMARK INTRA:                  -0.167
REMARK UNBOUND:                -0.157
REMARK  1 active torsions:
REMARK  status: ('A' for Active; 'I' for Inactive)
REMARK    1  A    between atoms: C10_13  and  C11_14 
ROOT
ATOM      1  C1  LG1 d5015      21.732  25.528  50.742  0.00  0.00     0.018 C 
ATOM      2  C2  LG1 d5015      21.701  24.579  51.883  0.00  0.00     0.193 C 
ATOM      3  C3  LG1 d5015      20.388  24.469  52.553  0.00  0.00     0.049 A 
ATOM      4  C4  LG1 d5015      20.253  23.697  53.708  0.00  0.00     0.037 A 
ATOM      5  C5  LG1 d5015      18.997  23.550  54.299  0.00  0.00     0.012 A 
ATOM      6  C6  LG1 d5015      17.878  24.163  53.735  0.00  0.00     0.022 A 
ATOM      7  C7  LG1 d5015      18.013  24.932  52.578  0.00  0.00     0.039 A 
ATOM      8  C8  LG1 d5015      19.269  25.100  51.995  0.00  0.00     0.083 A 
ATOM      9  O1  LG1 d5015      19.327  25.853  50.852  0.00  0.00    -0.346 OA
ATOM     10  C9  LG1 d5015      20.593  26.492  50.661  0.00  0.00     0.218 C 
ATOM     11 BR1  LG1 d5015      18.813  22.531  55.882  0.00  0.00    -0.051 Br
ATOM     12  O2  LG1 d5015      22.670  23.933  52.255  0.00  0.00    -0.287 OA
ATOM     13  C10 LG1 d5015      22.749  25.477  49.873  0.00  0.00     0.025 C 
ENDROOT
BRANCH  13  14
ATOM     14  C11 LG1 d5015      22.889  26.336  48.736  0.00  0.00    -0.029 A 
ATOM     15  C14 LG1 d5015      22.369  26.029  47.498  0.00  0.00     0.061 A 
ATOM     16  S1  LG1 d5015      22.698  27.249  46.343  0.00  0.00    -0.113 SA
ATOM     17  C13 LG1 d5015      23.538  28.193  47.497  0.00  0.00     0.050 A 
ATOM     18  C12 LG1 d5015      23.566  27.590  48.736  0.00  0.00     0.019 A 
ENDBRANCH  13  14
TORSDOF 1
ENDMDL
