MODEL 1
REMARK VINA RESULT:    -5.315      0.000      0.000
REMARK INTER + INTRA:          -5.833
REMARK INTER:                  -5.627
REMARK INTRA:                  -0.206
REMARK UNBOUND:                -0.207
REMARK  1 active torsions:
REMARK  status: ('A' for Active; 'I' for Inactive)
REMARK    1  A    between atoms: C1_1  and  N1_10 
ROOT
ATOM      1  C1  LG1 d5015      22.076  26.340  50.458  0.00  0.00     0.056 A 
ATOM      2  C2  LG1 d5015      20.983  26.374  49.593  0.00  0.00    -0.033 A 
ATOM      3  C3  LG1 d5015      21.105  25.874  48.296  0.00  0.00     0.028 A 
ATOM      4  C4  LG1 d5015      22.319  25.341  47.865  0.00  0.00     0.012 A 
ATOM      5  C5  LG1 d5015      23.414  25.309  48.731  0.00  0.00     0.028 A 
ATOM      6  C6  LG1 d5015      23.291  25.808  50.027  0.00  0.00    -0.033 A 
ATOM      7  C7  LG1 d5015      24.481  25.759  50.931  0.00  0.00     0.050 C 
ATOM      8 BR1  LG1 d5015      22.484  24.666  46.107  0.00  0.00    -0.051 Br
ATOM      9  C8  LG1 d5015      19.669  26.938  50.027  0.00  0.00     0.050 C 
ENDROOT
BRANCH   1  10
ATOM     10  N1  LG1 d5015      21.951  26.853  51.793  0.00  0.00    -0.265 N 
ATOM     11  C11 LG1 d5015      21.542  26.093  52.889  0.00  0.00     0.148 C 
ATOM     12  S2  LG1 d5015      21.325  24.437  53.039  0.00  0.00    -0.052 SA
ATOM     13  S1  LG1 d5015      21.349  27.141  54.289  0.00  0.00    -0.090 SA
ATOM     14  C10 LG1 d5015      22.109  28.554  53.490  0.00  0.00     0.185 C 
ATOM     15  C9  LG1 d5015      22.236  28.204  52.036  0.00  0.00     0.239 C 
ATOM     16  O1  LG1 d5015      22.541  29.063  51.211  0.00  0.00    -0.272 OA
ENDBRANCH   1  10
TORSDOF 1
ENDMDL
MODEL 2
REMARK VINA RESULT:    -5.311      0.045      2.152
REMARK INTER + INTRA:          -5.828
REMARK INTER:                  -5.624
REMARK INTRA:                  -0.204
REMARK UNBOUND:                -0.207
REMARK  1 active torsions:
REMARK  status: ('A' for Active; 'I' for Inactive)
REMARK    1  A    between atoms: C1_1  and  N1_10 
ROOT
ATOM      1  C1  LG1 d5015      22.068  26.326  50.437  0.00  0.00     0.056 A 
ATOM      2  C2  LG1 d5015      23.292  25.815  50.006  0.00  0.00    -0.033 A 
ATOM      3  C3  LG1 d5015      23.420  25.313  48.710  0.00  0.00     0.028 A 
ATOM      4  C4  LG1 d5015      22.325  25.322  47.847  0.00  0.00     0.012 A 
ATOM      5  C5  LG1 d5015      21.099  25.833  48.280  0.00  0.00     0.028 A 
ATOM      6  C6  LG1 d5015      20.972  26.334  49.574  0.00  0.00    -0.033 A 
ATOM      7  C7  LG1 d5015      19.648  26.875  50.008  0.00  0.00     0.050 C 
ATOM      8 BR1  LG1 d5015      22.499  24.640  46.093  0.00  0.00    -0.051 Br
ATOM      9  C8  LG1 d5015      24.483  25.793  50.907  0.00  0.00     0.050 C 
ENDROOT
BRANCH   1  10
ATOM     10  N1  LG1 d5015      21.936  26.844  51.770  0.00  0.00    -0.265 N 
ATOM     11  C11 LG1 d5015      21.550  26.081  52.871  0.00  0.00     0.148 C 
ATOM     12  S2  LG1 d5015      21.374  24.421  53.033  0.00  0.00    -0.052 SA
ATOM     13  S1  LG1 d5015      21.338  27.133  54.267  0.00  0.00    -0.090 SA
ATOM     14  C10 LG1 d5015      22.059  28.559  53.456  0.00  0.00     0.185 C 
ATOM     15  C9  LG1 d5015      22.189  28.203  52.003  0.00  0.00     0.239 C 
ATOM     16  O1  LG1 d5015      22.469  29.064  51.171  0.00  0.00    -0.272 OA
ENDBRANCH   1  10
TORSDOF 1
ENDMDL
MODEL 3
REMARK VINA RESULT:    -5.263      3.834      4.843
REMARK INTER + INTRA:          -5.777
REMARK INTER:                  -5.576
REMARK INTRA:                  -0.201
REMARK UNBOUND:                -0.207
REMARK  1 active torsions:
REMARK  status: ('A' for Active; 'I' for Inactive)
REMARK    1  A    between atoms: C1_1  and  N1_10 
ROOT
ATOM      1  C1  LG1 d5015      21.827  26.676  48.920  0.00  0.00     0.056 A 
ATOM      2  C2  LG1 d5015      23.181  27.008  48.934  0.00  0.00    -0.033 A 
ATOM      3  C3  LG1 d5015      24.039  26.396  49.848  0.00  0.00     0.028 A 
ATOM      4  C4  LG1 d5015      23.544  25.452  50.747  0.00  0.00     0.012 A 
ATOM      5  C5  LG1 d5015      22.188  25.120  50.733  0.00  0.00     0.028 A 
ATOM      6  C6  LG1 d5015      21.331  25.732  49.820  0.00  0.00    -0.033 A 
ATOM      7  C7  LG1 d5015      19.884  25.356  49.828  0.00  0.00     0.050 C 
ATOM      8 BR1  LG1 d5015      24.707  24.624  51.986  0.00  0.00    -0.051 Br
ATOM      9  C8  LG1 d5015      23.742  28.015  47.983  0.00  0.00     0.050 C 
ENDROOT
BRANCH   1  10
ATOM     10  N1  LG1 d5015      20.944  27.304  47.979  0.00  0.00    -0.265 N 
ATOM     11  C11 LG1 d5015      20.681  26.809  46.701  0.00  0.00     0.148 C 
ATOM     12  S2  LG1 d5015      21.074  25.335  46.008  0.00  0.00    -0.052 SA
ATOM     13  S1  LG1 d5015      19.696  27.969  45.816  0.00  0.00    -0.090 SA
ATOM     14  C10 LG1 d5015      19.378  28.986  47.258  0.00  0.00     0.185 C 
ATOM     15  C9  LG1 d5015      20.306  28.501  48.335  0.00  0.00     0.239 C 
ATOM     16  O1  LG1 d5015      20.449  29.143  49.372  0.00  0.00    -0.272 OA
ENDBRANCH   1  10
TORSDOF 1
ENDMDL
MODEL 4
REMARK VINA RESULT:    -5.207      1.798      3.156
REMARK INTER + INTRA:          -5.719
REMARK INTER:                  -5.513
REMARK INTRA:                  -0.205
REMARK UNBOUND:                -0.207
REMARK  1 active torsions:
REMARK  status: ('A' for Active; 'I' for Inactive)
REMARK    1  A    between atoms: C1_1  and  N1_10 
ROOT
ATOM      1  C1  LG1 d5015      21.811  25.798  50.318  0.00  0.00     0.056 A 
ATOM      2  C2  LG1 d5015      23.030  25.380  49.786  0.00  0.00    -0.033 A 
ATOM      3  C3  LG1 d5015      23.210  25.342  48.403  0.00  0.00     0.028 A 
ATOM      4  C4  LG1 d5015      22.172  25.721  47.553  0.00  0.00     0.012 A 
ATOM      5  C5  LG1 d5015      20.950  26.137  48.086  0.00  0.00     0.028 A 
ATOM      6  C6  LG1 d5015      20.771  26.175  49.468  0.00  0.00    -0.033 A 
ATOM      7  C7  LG1 d5015      19.453  26.626  50.010  0.00  0.00     0.050 C 
ATOM      8 BR1  LG1 d5015      22.416  25.667  45.679  0.00  0.00    -0.051 Br
ATOM      9  C8  LG1 d5015      24.162  24.970  50.671  0.00  0.00     0.050 C 
ENDROOT
BRANCH   1  10
ATOM     10  N1  LG1 d5015      21.625  25.838  51.741  0.00  0.00    -0.265 N 
ATOM     11  C11 LG1 d5015      21.939  26.938  52.540  0.00  0.00     0.148 C 
ATOM     12  S2  LG1 d5015      22.357  28.504  52.113  0.00  0.00    -0.052 SA
ATOM     13  S1  LG1 d5015      21.732  26.509  54.234  0.00  0.00    -0.090 SA
ATOM     14  C10 LG1 d5015      20.932  24.947  53.868  0.00  0.00     0.185 C 
ATOM     15  C9  LG1 d5015      21.114  24.709  52.396  0.00  0.00     0.239 C 
ATOM     16  O1  LG1 d5015      20.841  23.619  51.901  0.00  0.00    -0.272 OA
ENDBRANCH   1  10
TORSDOF 1
ENDMDL
MODEL 5
REMARK VINA RESULT:    -5.200      3.686      4.855
REMARK INTER + INTRA:          -5.711
REMARK INTER:                  -5.504
REMARK INTRA:                  -0.207
REMARK UNBOUND:                -0.207
REMARK  1 active torsions:
REMARK  status: ('A' for Active; 'I' for Inactive)
REMARK    1  A    between atoms: C1_1  and  N1_10 
ROOT
ATOM      1  C1  LG1 d5015      20.536  25.365  51.864  0.00  0.00     0.056 A 
ATOM      2  C2  LG1 d5015      19.209  25.531  52.261  0.00  0.00    -0.033 A 
ATOM      3  C3  LG1 d5015      18.699  24.778  53.320  0.00  0.00     0.028 A 
ATOM      4  C4  LG1 d5015      19.515  23.860  53.980  0.00  0.00     0.012 A 
ATOM      5  C5  LG1 d5015      20.843  23.694  53.581  0.00  0.00     0.028 A 
ATOM      6  C6  LG1 d5015      21.351  24.446  52.524  0.00  0.00    -0.033 A 
ATOM      7  C7  LG1 d5015      22.777  24.245  52.120  0.00  0.00     0.050 C 
ATOM      8 BR1  LG1 d5015      18.823  22.840  55.413  0.00  0.00    -0.051 Br
ATOM      9  C8  LG1 d5015      18.311  26.508  51.574  0.00  0.00     0.050 C 
ENDROOT
BRANCH   1  10
ATOM     10  N1  LG1 d5015      21.061  26.140  50.776  0.00  0.00    -0.265 N 
ATOM     11  C11 LG1 d5015      21.655  27.393  50.923  0.00  0.00     0.148 C 
ATOM     12  S2  LG1 d5015      22.129  28.213  52.307  0.00  0.00    -0.052 SA
ATOM     13  S1  LG1 d5015      21.994  28.071  49.334  0.00  0.00    -0.090 SA
ATOM     14  C10 LG1 d5015      21.618  26.547  48.469  0.00  0.00     0.185 C 
ATOM     15  C9  LG1 d5015      20.970  25.636  49.471  0.00  0.00     0.239 C 
ATOM     16  O1  LG1 d5015      20.426  24.595  49.109  0.00  0.00    -0.272 OA
ENDBRANCH   1  10
TORSDOF 1
ENDMDL
