REMARK INTER + INTRA:          -5.876
REMARK INTER:                  -5.722
REMARK INTRA:                  -0.154
REMARK UNBOUND:                -0.154
REMARK  1 active torsions:
REMARK  status: ('A' for Active; 'I' for Inactive)
REMARK    1  A    between atoms: C10_13  and  C11_14 
ROOT
ATOM      1  C1  LG1 d5015      21.742  26.763  49.575  0.00  0.00     0.018 C 
ATOM      2  C2  LG1 d5015      21.963  27.958  50.427  0.00  0.00     0.193 C 
ATOM      3  C3  LG1 d5015      22.009  27.675  51.878  0.00  0.00     0.049 A 
ATOM      4  C4  LG1 d5015      22.099  28.725  52.793  0.00  0.00     0.037 A 
ATOM      5  C5  LG1 d5015      22.202  28.447  54.157  0.00  0.00     0.012 A 
ATOM      6  C6  LG1 d5015      22.226  27.125  54.605  0.00  0.00     0.022 A 
ATOM      7  C7  LG1 d5015      22.139  26.076  53.689  0.00  0.00     0.039 A 
ATOM      8  C8  LG1 d5015      22.014  26.349  52.326  0.00  0.00     0.083 A 
ATOM      9  O1  LG1 d5015      21.951  25.272  51.481  0.00  0.00    -0.346 OA
ATOM     10  C9  LG1 d5015      21.233  25.545  50.274  0.00  0.00     0.218 C 
ATOM     11 BR1  LG1 d5015      22.293  29.865  55.405  0.00  0.00    -0.051 Br
ATOM     12  O2  LG1 d5015      22.098  29.090  49.987  0.00  0.00    -0.287 OA
ATOM     13  C10 LG1 d5015      21.997  26.836  48.263  0.00  0.00     0.025 C 
ENDROOT
BRANCH  13  14
ATOM     14  C11 LG1 d5015      21.824  25.755  47.340  0.00  0.00    -0.029 A 
ATOM     15  C14 LG1 d5015      20.625  25.486  46.719  0.00  0.00     0.061 A 
ATOM     16  S1  LG1 d5015      20.732  24.135  45.673  0.00  0.00    -0.113 SA
ATOM     17  C13 LG1 d5015      22.386  23.904  46.050  0.00  0.00     0.050 A 
ATOM     18  C12 LG1 d5015      22.845  24.839  46.952  0.00  0.00     0.019 A 
ENDBRANCH  13  14
TORSDOF 1
ENDMDL
