REMARK INTER + INTRA:          -6.413
REMARK INTER:                  -6.380
REMARK INTRA:                  -0.033
REMARK UNBOUND:                -0.154
REMARK  1 active torsions:
REMARK  status: ('A' for Active; 'I' for Inactive)
REMARK    1  A    between atoms: C10_13  and  C11_14 
ROOT
ATOM      1  C1  LG1 d5015      22.316  26.360  52.528  0.00  0.00     0.018 C 
ATOM      2  C2  LG1 d5015      22.165  25.432  51.379  0.00  0.00     0.193 C 
ATOM      3  C3  LG1 d5015      22.495  26.025  50.066  0.00  0.00     0.049 A 
ATOM      4  C4  LG1 d5015      22.287  25.292  48.895  0.00  0.00     0.037 A 
ATOM      5  C5  LG1 d5015      22.657  25.837  47.665  0.00  0.00     0.012 A 
ATOM      6  C6  LG1 d5015      23.241  27.102  47.603  0.00  0.00     0.022 A 
ATOM      7  C7  LG1 d5015      23.452  27.832  48.774  0.00  0.00     0.039 A 
ATOM      8  C8  LG1 d5015      23.064  27.302  50.004  0.00  0.00     0.083 A 
ATOM      9  O1  LG1 d5015      23.315  28.064  51.115  0.00  0.00    -0.346 OA
ATOM     10  C9  LG1 d5015      22.404  27.812  52.189  0.00  0.00     0.218 C 
ATOM     11 BR1  LG1 d5015      22.351  24.863  46.072  0.00  0.00    -0.051 Br
ATOM     12  O2  LG1 d5015      21.799  24.271  51.489  0.00  0.00    -0.287 OA
ATOM     13  C10 LG1 d5015      22.358  25.865  53.771  0.00  0.00     0.025 C 
ENDROOT
BRANCH  13  14
ATOM     14  C11 LG1 d5015      22.501  26.657  54.956  0.00  0.00    -0.029 A 
ATOM     15  C14 LG1 d5015      21.495  27.457  55.446  0.00  0.00     0.061 A 
ATOM     16  S1  LG1 d5015      21.963  28.277  56.874  0.00  0.00    -0.113 SA
ATOM     17  C13 LG1 d5015      23.517  27.562  56.840  0.00  0.00     0.050 A 
ATOM     18  C12 LG1 d5015      23.674  26.717  55.764  0.00  0.00     0.019 A 
ENDBRANCH  13  14
TORSDOF 1
ENDMDL
