REMARK INTER + INTRA:          -8.204
REMARK INTER:                  -7.650
REMARK INTRA:                  -0.554
REMARK UNBOUND:                -0.521
REMARK  2 active torsions:
REMARK  status: ('A' for Active; 'I' for Inactive)
REMARK    1  A    between atoms: C1_1  and  N1_15 
REMARK    2  A    between atoms: C7_9  and  C4_4 
ROOT
ATOM      1  C1  LG1 d5015      21.151  24.996  52.244  0.00  0.00     0.141 A 
ATOM      2  C2  LG1 d5015      22.426  24.536  51.911  0.00  0.00     0.187 A 
ATOM      3  C3  LG1 d5015      23.013  24.920  50.706  0.00  0.00     0.175 A 
ATOM      4  C4  LG1 d5015      22.327  25.763  49.832  0.00  0.00     0.131 A 
ATOM      5  C5  LG1 d5015      21.052  26.223  50.164  0.00  0.00     0.175 A 
ATOM      6  C6  LG1 d5015      20.465  25.839  51.369  0.00  0.00     0.187 A 
ATOM      7  F1  LG1 d5015      19.240  26.289  51.675  0.00  0.00    -0.200 F 
ATOM      8  F2  LG1 d5015      20.385  27.034  49.330  0.00  0.00    -0.202 F 
ATOM      9  F6  LG1 d5015      24.239  24.473  50.397  0.00  0.00    -0.202 F 
ATOM     10  F7  LG1 d5015      23.097  23.725  52.742  0.00  0.00    -0.200 F 
ENDROOT
BRANCH   1  11
ATOM     11  N1  LG1 d5015      20.568  24.616  53.438  0.00  0.00    -0.232 N 
ATOM     12  N2  LG1 d5015      19.885  23.460  53.509  0.00  0.00    -0.172 NA
ATOM     13  C10 LG1 d5015      19.475  23.428  54.779  0.00  0.00     0.053 A 
ATOM     14  C9  LG1 d5015      19.892  24.554  55.514  0.00  0.00     0.055 A 
ATOM     15  C11 LG1 d5015      18.677  22.288  55.262  0.00  0.00     0.072 C 
ATOM     16  C8  LG1 d5015      20.602  25.309  54.612  0.00  0.00     0.035 A 
ATOM     17  C12 LG1 d5015      21.293  26.602  54.777  0.00  0.00     0.070 C 
ENDBRANCH   1  11
BRANCH   4  18
ATOM     18  C7  LG1 d5015      22.956  26.173  48.543  0.00  0.00     0.423 C 
ATOM     19  F4  LG1 d5015      22.151  26.957  47.767  0.00  0.00    -0.166 F 
ATOM     20  F3  LG1 d5015      23.304  25.120  47.746  0.00  0.00    -0.166 F 
ATOM     21  F5  LG1 d5015      24.103  26.890  48.723  0.00  0.00    -0.166 F 
ENDBRANCH   4  18
TORSDOF 2
ENDMDL
