REMARK INTER + INTRA:          -6.217
REMARK INTER:                  -6.054
REMARK INTRA:                  -0.163
REMARK UNBOUND:                -0.163
REMARK  1 active torsions:
REMARK  status: ('A' for Active; 'I' for Inactive)
REMARK    1  A    between atoms: C10_13  and  C11_14 
ROOT
ATOM      1  C1  LG1 d5015      20.284  24.391  52.467  0.00  0.00     0.018 C 
ATOM      2  C2  LG1 d5015      21.330  24.593  51.433  0.00  0.00     0.193 C 
ATOM      3  C3  LG1 d5015      20.857  25.270  50.207  0.00  0.00     0.049 A 
ATOM      4  C4  LG1 d5015      21.714  25.419  49.115  0.00  0.00     0.037 A 
ATOM      5  C5  LG1 d5015      21.278  26.113  47.985  0.00  0.00     0.012 A 
ATOM      6  C6  LG1 d5015      19.997  26.663  47.948  0.00  0.00     0.022 A 
ATOM      7  C7  LG1 d5015      19.142  26.517  49.042  0.00  0.00     0.039 A 
ATOM      8  C8  LG1 d5015      19.564  25.806  50.165  0.00  0.00     0.083 A 
ATOM      9  O1  LG1 d5015      18.681  25.715  51.209  0.00  0.00    -0.346 OA
ATOM     10  C9  LG1 d5015      18.870  24.541  52.006  0.00  0.00     0.218 C 
ATOM     11 BR1  LG1 d5015      22.423  26.292  46.490  0.00  0.00    -0.051 Br
ATOM     12  O2  LG1 d5015      22.491  24.235  51.565  0.00  0.00    -0.287 OA
ATOM     13  C10 LG1 d5015      20.647  24.089  53.719  0.00  0.00     0.025 C 
ENDROOT
BRANCH  13  14
ATOM     14  C11 LG1 d5015      19.733  23.873  54.800  0.00  0.00    -0.029 A 
ATOM     15  C14 LG1 d5015      19.364  24.867  55.678  0.00  0.00     0.061 A 
ATOM     16  S1  LG1 d5015      18.260  24.305  56.859  0.00  0.00    -0.113 SA
ATOM     17  C13 LG1 d5015      18.273  22.726  56.198  0.00  0.00     0.050 A 
ATOM     18  C12 LG1 d5015      19.100  22.631  55.102  0.00  0.00     0.019 A 
ENDBRANCH  13  14
TORSDOF 1
ENDMDL
