REMARK INTER + INTRA:          -5.685
REMARK INTER:                  -5.491
REMARK INTRA:                  -0.194
REMARK UNBOUND:                -0.193
REMARK  1 active torsions:
REMARK  status: ('A' for Active; 'I' for Inactive)
REMARK    1  A    between atoms: C1_1  and  N1_10 
ROOT
ATOM      1  C1  LG1 d5015      21.693  25.739  50.310  0.00  0.00     0.056 A 
ATOM      2  C2  LG1 d5015      20.651  26.108  49.460  0.00  0.00    -0.033 A 
ATOM      3  C3  LG1 d5015      20.844  26.101  48.078  0.00  0.00     0.028 A 
ATOM      4  C4  LG1 d5015      22.077  25.725  47.547  0.00  0.00     0.012 A 
ATOM      5  C5  LG1 d5015      23.120  25.357  48.399  0.00  0.00     0.028 A 
ATOM      6  C6  LG1 d5015      22.927  25.364  49.780  0.00  0.00    -0.033 A 
ATOM      7  C7  LG1 d5015      24.062  24.964  50.666  0.00  0.00     0.050 C 
ATOM      8 BR1  LG1 d5015      22.338  25.717  45.675  0.00  0.00    -0.051 Br
ATOM      9  C8  LG1 d5015      19.317  26.513  49.999  0.00  0.00     0.050 C 
ENDROOT
BRANCH   1  10
ATOM     10  N1  LG1 d5015      21.495  25.744  51.732  0.00  0.00    -0.265 N 
ATOM     11  C11 LG1 d5015      21.834  26.811  52.565  0.00  0.00     0.148 C 
ATOM     12  S2  LG1 d5015      22.303  28.374  52.187  0.00  0.00    -0.052 SA
ATOM     13  S1  LG1 d5015      21.597  26.339  54.244  0.00  0.00    -0.090 SA
ATOM     14  C10 LG1 d5015      20.754  24.814  53.825  0.00  0.00     0.185 C 
ATOM     15  C9  LG1 d5015      20.943  24.613  52.350  0.00  0.00     0.239 C 
ATOM     16  O1  LG1 d5015      20.642  23.546  51.820  0.00  0.00    -0.272 OA
ENDBRANCH   1  10
TORSDOF 1
ENDMDL
