MODEL 1
REMARK VINA RESULT:    -6.110      0.000      0.000
REMARK INTER + INTRA:          -6.631
REMARK INTER:                  -6.464
REMARK INTRA:                  -0.168
REMARK UNBOUND:                -0.164
REMARK  1 active torsions:
REMARK  status: ('A' for Active; 'I' for Inactive)
REMARK    1  A    between atoms: C10_13  and  C11_14 
ROOT
ATOM      1  C1  LG1 d5015      21.713  25.523  50.733  0.00  0.00     0.018 C 
ATOM      2  C2  LG1 d5015      21.702  24.595  51.891  0.00  0.00     0.193 C 
ATOM      3  C3  LG1 d5015      20.392  24.473  52.566  0.00  0.00     0.049 A 
ATOM      4  C4  LG1 d5015      20.275  23.720  53.736  0.00  0.00     0.037 A 
ATOM      5  C5  LG1 d5015      19.023  23.560  54.332  0.00  0.00     0.012 A 
ATOM      6  C6  LG1 d5015      17.891  24.140  53.758  0.00  0.00     0.022 A 
ATOM      7  C7  LG1 d5015      18.009  24.890  52.587  0.00  0.00     0.039 A 
ATOM      8  C8  LG1 d5015      19.261  25.071  51.998  0.00  0.00     0.083 A 
ATOM      9  O1  LG1 d5015      19.302  25.804  50.841  0.00  0.00    -0.346 OA
ATOM     10  C9  LG1 d5015      20.556  26.463  50.636  0.00  0.00     0.218 C 
ATOM     11 BR1  LG1 d5015      18.861  22.566  55.933  0.00  0.00    -0.051 Br
ATOM     12  O2  LG1 d5015      22.684  23.975  52.273  0.00  0.00    -0.287 OA
ATOM     13  C10 LG1 d5015      22.729  25.476  49.863  0.00  0.00     0.025 C 
ENDROOT
BRANCH  13  14
ATOM     14  C11 LG1 d5015      22.851  26.316  48.710  0.00  0.00    -0.029 A 
ATOM     15  C14 LG1 d5015      22.358  25.965  47.474  0.00  0.00     0.061 A 
ATOM     16  S1  LG1 d5015      22.654  27.172  46.297  0.00  0.00    -0.113 SA
ATOM     17  C13 LG1 d5015      23.444  28.171  47.440  0.00  0.00     0.050 A 
ATOM     18  C12 LG1 d5015      23.480  27.595  48.690  0.00  0.00     0.019 A 
ENDBRANCH  13  14
TORSDOF 1
ENDMDL
MODEL 2
REMARK VINA RESULT:    -5.925      4.256      6.780
REMARK INTER + INTRA:          -6.435
REMARK INTER:                  -6.268
REMARK INTRA:                  -0.168
REMARK UNBOUND:                -0.164
REMARK  1 active torsions:
REMARK  status: ('A' for Active; 'I' for Inactive)
REMARK    1  A    between atoms: C10_13  and  C11_14 
ROOT
ATOM      1  C1  LG1 d5015      21.809  26.232  51.394  0.00  0.00     0.018 C 
ATOM      2  C2  LG1 d5015      22.827  26.640  50.394  0.00  0.00     0.193 C 
ATOM      3  C3  LG1 d5015      22.375  27.686  49.452  0.00  0.00     0.049 A 
ATOM      4  C4  LG1 d5015      23.197  28.078  48.394  0.00  0.00     0.037 A 
ATOM      5  C5  LG1 d5015      22.788  29.108  47.546  0.00  0.00     0.012 A 
ATOM      6  C6  LG1 d5015      21.569  29.752  47.759  0.00  0.00     0.022 A 
ATOM      7  C7  LG1 d5015      20.750  29.363  48.819  0.00  0.00     0.039 A 
ATOM      8  C8  LG1 d5015      21.143  28.319  49.657  0.00  0.00     0.083 A 
ATOM      9  O1  LG1 d5015      20.299  28.000  50.688  0.00  0.00    -0.346 OA
ATOM     10  C9  LG1 d5015      20.401  26.631  51.096  0.00  0.00     0.218 C 
ATOM     11 BR1  LG1 d5015      23.883  29.623  46.091  0.00  0.00    -0.051 Br
ATOM     12  O2  LG1 d5015      23.950  26.162  50.335  0.00  0.00    -0.287 OA
ATOM     13  C10 LG1 d5015      22.191  25.544  52.477  0.00  0.00     0.025 C 
ENDROOT
BRANCH  13  14
ATOM     14  C11 LG1 d5015      21.305  25.097  53.509  0.00  0.00    -0.029 A 
ATOM     15  C14 LG1 d5015      21.019  25.849  54.626  0.00  0.00     0.061 A 
ATOM     16  S1  LG1 d5015      19.929  25.050  55.677  0.00  0.00    -0.113 SA
ATOM     17  C13 LG1 d5015      19.836  23.693  54.638  0.00  0.00     0.050 A 
ATOM     18  C12 LG1 d5015      20.618  23.848  53.516  0.00  0.00     0.019 A 
ENDBRANCH  13  14
TORSDOF 1
ENDMDL
MODEL 3
REMARK VINA RESULT:    -5.861      4.506      6.597
REMARK INTER + INTRA:          -6.368
REMARK INTER:                  -6.312
REMARK INTRA:                  -0.056
REMARK UNBOUND:                -0.164
REMARK  1 active torsions:
REMARK  status: ('A' for Active; 'I' for Inactive)
REMARK    1  A    between atoms: C10_13  and  C11_14 
ROOT
ATOM      1  C1  LG1 d5015      22.315  26.392  52.578  0.00  0.00     0.018 C 
ATOM      2  C2  LG1 d5015      22.225  25.448  51.436  0.00  0.00     0.193 C 
ATOM      3  C3  LG1 d5015      22.527  26.048  50.120  0.00  0.00     0.049 A 
ATOM      4  C4  LG1 d5015      22.369  25.295  48.954  0.00  0.00     0.037 A 
ATOM      5  C5  LG1 d5015      22.714  25.851  47.721  0.00  0.00     0.012 A 
ATOM      6  C6  LG1 d5015      23.223  27.148  47.651  0.00  0.00     0.022 A 
ATOM      7  C7  LG1 d5015      23.384  27.898  48.817  0.00  0.00     0.039 A 
ATOM      8  C8  LG1 d5015      23.021  27.356  50.050  0.00  0.00     0.083 A 
ATOM      9  O1  LG1 d5015      23.221  28.141  51.155  0.00  0.00    -0.346 OA
ATOM     10  C9  LG1 d5015      22.320  27.845  52.228  0.00  0.00     0.218 C 
ATOM     11 BR1  LG1 d5015      22.473  24.848  46.135  0.00  0.00    -0.051 Br
ATOM     12  O2  LG1 d5015      21.927  24.268  51.554  0.00  0.00    -0.287 OA
ATOM     13  C10 LG1 d5015      22.380  25.911  53.825  0.00  0.00     0.025 C 
ENDROOT
BRANCH  13  14
ATOM     14  C11 LG1 d5015      22.470  26.719  55.004  0.00  0.00    -0.029 A 
ATOM     15  C14 LG1 d5015      21.403  27.428  55.507  0.00  0.00     0.061 A 
ATOM     16  S1  LG1 d5015      21.818  28.296  56.923  0.00  0.00    -0.113 SA
ATOM     17  C13 LG1 d5015      23.431  27.724  56.867  0.00  0.00     0.050 A 
ATOM     18  C12 LG1 d5015      23.645  26.890  55.793  0.00  0.00     0.019 A 
ENDBRANCH  13  14
TORSDOF 1
ENDMDL
MODEL 4
REMARK VINA RESULT:    -5.703      3.994      6.627
REMARK INTER + INTRA:          -6.201
REMARK INTER:                  -6.036
REMARK INTRA:                  -0.164
REMARK UNBOUND:                -0.164
REMARK  1 active torsions:
REMARK  status: ('A' for Active; 'I' for Inactive)
REMARK    1  A    between atoms: C10_13  and  C11_14 
ROOT
ATOM      1  C1  LG1 d5015      20.288  24.420  52.464  0.00  0.00     0.018 C 
ATOM      2  C2  LG1 d5015      21.329  24.623  51.426  0.00  0.00     0.193 C 
ATOM      3  C3  LG1 d5015      20.862  25.347  50.225  0.00  0.00     0.049 A 
ATOM      4  C4  LG1 d5015      21.712  25.505  49.128  0.00  0.00     0.037 A 
ATOM      5  C5  LG1 d5015      21.285  26.242  48.023  0.00  0.00     0.012 A 
ATOM      6  C6  LG1 d5015      20.019  26.828  48.015  0.00  0.00     0.022 A 
ATOM      7  C7  LG1 d5015      19.172  26.674  49.113  0.00  0.00     0.039 A 
ATOM      8  C8  LG1 d5015      19.585  25.920  50.212  0.00  0.00     0.083 A 
ATOM      9  O1  LG1 d5015      18.710  25.823  51.262  0.00  0.00    -0.346 OA
ATOM     10  C9  LG1 d5015      18.874  24.622  52.023  0.00  0.00     0.218 C 
ATOM     11 BR1  LG1 d5015      22.419  26.433  46.521  0.00  0.00    -0.051 Br
ATOM     12  O2  LG1 d5015      22.481  24.230  51.535  0.00  0.00    -0.287 OA
ATOM     13  C10 LG1 d5015      20.655  24.072  53.704  0.00  0.00     0.025 C 
ENDROOT
BRANCH  13  14
ATOM     14  C11 LG1 d5015      19.746  23.850  54.788  0.00  0.00    -0.029 A 
ATOM     15  C14 LG1 d5015      19.397  24.834  55.684  0.00  0.00     0.061 A 
ATOM     16  S1  LG1 d5015      18.295  24.267  56.864  0.00  0.00    -0.113 SA
ATOM     17  C13 LG1 d5015      18.280  22.699  56.177  0.00  0.00     0.050 A 
ATOM     18  C12 LG1 d5015      19.098  22.613  55.073  0.00  0.00     0.019 A 
ENDBRANCH  13  14
TORSDOF 1
ENDMDL
MODEL 5
REMARK VINA RESULT:    -5.689      3.989      6.933
REMARK INTER + INTRA:          -6.185
REMARK INTER:                  -6.038
REMARK INTRA:                  -0.147
REMARK UNBOUND:                -0.164
REMARK  1 active torsions:
REMARK  status: ('A' for Active; 'I' for Inactive)
REMARK    1  A    between atoms: C10_13  and  C11_14 
ROOT
ATOM      1  C1  LG1 d5015      20.438  25.737  52.774  0.00  0.00     0.018 C 
ATOM      2  C2  LG1 d5015      20.553  26.739  51.685  0.00  0.00     0.193 C 
ATOM      3  C3  LG1 d5015      21.710  26.538  50.787  0.00  0.00     0.049 A 
ATOM      4  C4  LG1 d5015      21.995  27.475  49.792  0.00  0.00     0.037 A 
ATOM      5  C5  LG1 d5015      23.052  27.247  48.910  0.00  0.00     0.012 A 
ATOM      6  C6  LG1 d5015      23.816  26.084  49.014  0.00  0.00     0.022 A 
ATOM      7  C7  LG1 d5015      23.528  25.146  50.007  0.00  0.00     0.039 A 
ATOM      8  C8  LG1 d5015      22.487  25.379  50.905  0.00  0.00     0.083 A 
ATOM      9  O1  LG1 d5015      22.248  24.410  51.844  0.00  0.00    -0.346 OA
ATOM     10  C9  LG1 d5015      21.660  24.921  53.045  0.00  0.00     0.218 C 
ATOM     11 BR1  LG1 d5015      23.463  28.526  47.579  0.00  0.00    -0.051 Br
ATOM     12  O2  LG1 d5015      19.767  27.662  51.528  0.00  0.00    -0.287 OA
ATOM     13  C10 LG1 d5015      19.284  25.621  53.442  0.00  0.00     0.025 C 
ENDROOT
BRANCH  13  14
ATOM     14  C11 LG1 d5015      19.052  24.694  54.508  0.00  0.00    -0.029 A 
ATOM     15  C14 LG1 d5015      18.420  23.485  54.323  0.00  0.00     0.061 A 
ATOM     16  S1  LG1 d5015      18.290  22.598  55.781  0.00  0.00    -0.113 SA
ATOM     17  C13 LG1 d5015      19.081  23.830  56.666  0.00  0.00     0.050 A 
ATOM     18  C12 LG1 d5015      19.436  24.894  55.866  0.00  0.00     0.019 A 
ENDBRANCH  13  14
TORSDOF 1
ENDMDL
