REMARK INTER + INTRA:          -5.718
REMARK INTER:                  -5.526
REMARK INTRA:                  -0.192
REMARK UNBOUND:                -0.192
REMARK  1 active torsions:
REMARK  status: ('A' for Active; 'I' for Inactive)
REMARK    1  A    between atoms: C1_1  and  N1_10 
ROOT
ATOM      1  C1  LG1 d5015      21.750  25.734  50.300  0.00  0.00     0.056 A 
ATOM      2  C2  LG1 d5015      20.709  26.068  49.434  0.00  0.00    -0.033 A 
ATOM      3  C3  LG1 d5015      20.920  26.058  48.055  0.00  0.00     0.028 A 
ATOM      4  C4  LG1 d5015      22.170  25.714  47.542  0.00  0.00     0.012 A 
ATOM      5  C5  LG1 d5015      23.212  25.381  48.410  0.00  0.00     0.028 A 
ATOM      6  C6  LG1 d5015      23.001  25.391  49.787  0.00  0.00    -0.033 A 
ATOM      7  C7  LG1 d5015      24.135  25.029  50.691  0.00  0.00     0.050 C 
ATOM      8 BR1  LG1 d5015      22.455  25.702  45.673  0.00  0.00    -0.051 Br
ATOM      9  C8  LG1 d5015      19.358  26.440  49.953  0.00  0.00     0.050 C 
ENDROOT
BRANCH   1  10
ATOM     10  N1  LG1 d5015      21.533  25.743  51.719  0.00  0.00    -0.265 N 
ATOM     11  C11 LG1 d5015      21.831  26.824  52.549  0.00  0.00     0.148 C 
ATOM     12  S2  LG1 d5015      22.261  28.398  52.168  0.00  0.00    -0.052 SA
ATOM     13  S1  LG1 d5015      21.587  26.356  54.228  0.00  0.00    -0.090 SA
ATOM     14  C10 LG1 d5015      20.792  24.805  53.809  0.00  0.00     0.185 C 
ATOM     15  C9  LG1 d5015      21.006  24.600  52.337  0.00  0.00     0.239 C 
ATOM     16  O1  LG1 d5015      20.742  23.522  51.811  0.00  0.00    -0.272 OA
ENDBRANCH   1  10
TORSDOF 1
ENDMDL
