MODEL 1
REMARK VINA RESULT:    -6.122      0.000      0.000
REMARK INTER + INTRA:          -6.634
REMARK INTER:                  -6.469
REMARK INTRA:                  -0.164
REMARK UNBOUND:                -0.154
REMARK  1 active torsions:
REMARK  status: ('A' for Active; 'I' for Inactive)
REMARK    1  A    between atoms: C10_13  and  C11_14 
ROOT
ATOM      1  C1  LG1 d5015      21.726  25.531  50.736  0.00  0.00     0.018 C 
ATOM      2  C2  LG1 d5015      21.705  24.593  51.886  0.00  0.00     0.193 C 
ATOM      3  C3  LG1 d5015      20.396  24.488  52.565  0.00  0.00     0.049 A 
ATOM      4  C4  LG1 d5015      20.271  23.726  53.729  0.00  0.00     0.037 A 
ATOM      5  C5  LG1 d5015      19.020  23.583  54.330  0.00  0.00     0.012 A 
ATOM      6  C6  LG1 d5015      17.896  24.189  53.768  0.00  0.00     0.022 A 
ATOM      7  C7  LG1 d5015      18.021  24.948  52.603  0.00  0.00     0.039 A 
ATOM      8  C8  LG1 d5015      19.273  25.112  52.010  0.00  0.00     0.083 A 
ATOM      9  O1  LG1 d5015      19.322  25.855  50.860  0.00  0.00    -0.346 OA
ATOM     10  C9  LG1 d5015      20.586  26.494  50.654  0.00  0.00     0.218 C 
ATOM     11 BR1  LG1 d5015      18.848  22.577  55.923  0.00  0.00    -0.051 Br
ATOM     12  O2  LG1 d5015      22.677  23.952  52.256  0.00  0.00    -0.287 OA
ATOM     13  C10 LG1 d5015      22.737  25.474  49.860  0.00  0.00     0.025 C 
ENDROOT
BRANCH  13  14
ATOM     14  C11 LG1 d5015      22.868  26.323  48.714  0.00  0.00    -0.029 A 
ATOM     15  C14 LG1 d5015      22.312  26.020  47.492  0.00  0.00     0.061 A 
ATOM     16  S1  LG1 d5015      22.638  27.226  46.322  0.00  0.00    -0.113 SA
ATOM     17  C13 LG1 d5015      23.526  28.158  47.448  0.00  0.00     0.050 A 
ATOM     18  C12 LG1 d5015      23.572  27.562  48.690  0.00  0.00     0.019 A 
ENDBRANCH  13  14
TORSDOF 1
ENDMDL
MODEL 2
REMARK VINA RESULT:    -5.920      4.257      6.770
REMARK INTER + INTRA:          -6.420
REMARK INTER:                  -6.252
REMARK INTRA:                  -0.168
REMARK UNBOUND:                -0.154
REMARK  1 active torsions:
REMARK  status: ('A' for Active; 'I' for Inactive)
REMARK    1  A    between atoms: C10_13  and  C11_14 
ROOT
ATOM      1  C1  LG1 d5015      21.811  26.212  51.387  0.00  0.00     0.018 C 
ATOM      2  C2  LG1 d5015      22.826  26.623  50.385  0.00  0.00     0.193 C 
ATOM      3  C3  LG1 d5015      22.385  27.700  49.473  0.00  0.00     0.049 A 
ATOM      4  C4  LG1 d5015      23.203  28.099  48.414  0.00  0.00     0.037 A 
ATOM      5  C5  LG1 d5015      22.806  29.158  47.596  0.00  0.00     0.012 A 
ATOM      6  C6  LG1 d5015      21.603  29.821  47.837  0.00  0.00     0.022 A 
ATOM      7  C7  LG1 d5015      20.788  29.423  48.898  0.00  0.00     0.039 A 
ATOM      8  C8  LG1 d5015      21.169  28.352  49.707  0.00  0.00     0.083 A 
ATOM      9  O1  LG1 d5015      20.330  28.026  50.740  0.00  0.00    -0.346 OA
ATOM     10  C9  LG1 d5015      20.408  26.647  51.114  0.00  0.00     0.218 C 
ATOM     11 BR1  LG1 d5015      23.895  29.684  46.141  0.00  0.00    -0.051 Br
ATOM     12  O2  LG1 d5015      23.939  26.123  50.302  0.00  0.00    -0.287 OA
ATOM     13  C10 LG1 d5015      22.191  25.491  52.449  0.00  0.00     0.025 C 
ENDROOT
BRANCH  13  14
ATOM     14  C11 LG1 d5015      21.307  25.038  53.481  0.00  0.00    -0.029 A 
ATOM     15  C14 LG1 d5015      21.031  25.779  54.608  0.00  0.00     0.061 A 
ATOM     16  S1  LG1 d5015      19.941  24.976  55.654  0.00  0.00    -0.113 SA
ATOM     17  C13 LG1 d5015      19.835  23.630  54.601  0.00  0.00     0.050 A 
ATOM     18  C12 LG1 d5015      20.614  23.793  53.477  0.00  0.00     0.019 A 
ENDBRANCH  13  14
TORSDOF 1
ENDMDL
MODEL 3
REMARK VINA RESULT:    -5.913      4.479      6.579
REMARK INTER + INTRA:          -6.413
REMARK INTER:                  -6.380
REMARK INTRA:                  -0.033
REMARK UNBOUND:                -0.154
REMARK  1 active torsions:
REMARK  status: ('A' for Active; 'I' for Inactive)
REMARK    1  A    between atoms: C10_13  and  C11_14 
ROOT
ATOM      1  C1  LG1 d5015      22.316  26.360  52.528  0.00  0.00     0.018 C 
ATOM      2  C2  LG1 d5015      22.165  25.432  51.379  0.00  0.00     0.193 C 
ATOM      3  C3  LG1 d5015      22.495  26.025  50.066  0.00  0.00     0.049 A 
ATOM      4  C4  LG1 d5015      22.287  25.292  48.895  0.00  0.00     0.037 A 
ATOM      5  C5  LG1 d5015      22.657  25.837  47.665  0.00  0.00     0.012 A 
ATOM      6  C6  LG1 d5015      23.241  27.102  47.603  0.00  0.00     0.022 A 
ATOM      7  C7  LG1 d5015      23.452  27.832  48.774  0.00  0.00     0.039 A 
ATOM      8  C8  LG1 d5015      23.064  27.302  50.004  0.00  0.00     0.083 A 
ATOM      9  O1  LG1 d5015      23.315  28.064  51.115  0.00  0.00    -0.346 OA
ATOM     10  C9  LG1 d5015      22.404  27.812  52.189  0.00  0.00     0.218 C 
ATOM     11 BR1  LG1 d5015      22.351  24.863  46.072  0.00  0.00    -0.051 Br
ATOM     12  O2  LG1 d5015      21.799  24.271  51.489  0.00  0.00    -0.287 OA
ATOM     13  C10 LG1 d5015      22.358  25.865  53.771  0.00  0.00     0.025 C 
ENDROOT
BRANCH  13  14
ATOM     14  C11 LG1 d5015      22.501  26.657  54.956  0.00  0.00    -0.029 A 
ATOM     15  C14 LG1 d5015      21.495  27.457  55.446  0.00  0.00     0.061 A 
ATOM     16  S1  LG1 d5015      21.963  28.277  56.874  0.00  0.00    -0.113 SA
ATOM     17  C13 LG1 d5015      23.517  27.562  56.840  0.00  0.00     0.050 A 
ATOM     18  C12 LG1 d5015      23.674  26.717  55.764  0.00  0.00     0.019 A 
ENDBRANCH  13  14
TORSDOF 1
ENDMDL
MODEL 4
REMARK VINA RESULT:    -5.587      4.024      6.922
REMARK INTER + INTRA:          -6.068
REMARK INTER:                  -5.900
REMARK INTRA:                  -0.168
REMARK UNBOUND:                -0.154
REMARK  1 active torsions:
REMARK  status: ('A' for Active; 'I' for Inactive)
REMARK    1  A    between atoms: C10_13  and  C11_14 
ROOT
ATOM      1  C1  LG1 d5015      20.598  26.012  52.634  0.00  0.00     0.018 C 
ATOM      2  C2  LG1 d5015      20.651  26.987  51.516  0.00  0.00     0.193 C 
ATOM      3  C3  LG1 d5015      21.741  26.747  50.546  0.00  0.00     0.049 A 
ATOM      4  C4  LG1 d5015      21.969  27.656  49.511  0.00  0.00     0.037 A 
ATOM      5  C5  LG1 d5015      22.960  27.391  48.565  0.00  0.00     0.012 A 
ATOM      6  C6  LG1 d5015      23.714  26.220  48.645  0.00  0.00     0.022 A 
ATOM      7  C7  LG1 d5015      23.482  25.310  49.678  0.00  0.00     0.039 A 
ATOM      8  C8  LG1 d5015      22.508  25.580  50.639  0.00  0.00     0.083 A 
ATOM      9  O1  LG1 d5015      22.321  24.636  51.614  0.00  0.00    -0.346 OA
ATOM     10  C9  LG1 d5015      21.825  25.184  52.840  0.00  0.00     0.218 C 
ATOM     11 BR1  LG1 d5015      23.296  28.633  47.178  0.00  0.00    -0.051 Br
ATOM     12  O2  LG1 d5015      19.869  27.918  51.390  0.00  0.00    -0.287 OA
ATOM     13  C10 LG1 d5015      19.491  25.930  53.382  0.00  0.00     0.025 C 
ENDROOT
BRANCH  13  14
ATOM     14  C11 LG1 d5015      19.320  25.031  54.484  0.00  0.00    -0.029 A 
ATOM     15  C14 LG1 d5015      18.802  23.764  54.341  0.00  0.00     0.061 A 
ATOM     16  S1  LG1 d5015      18.723  22.930  55.834  0.00  0.00    -0.113 SA
ATOM     17  C13 LG1 d5015      19.382  24.265  56.678  0.00  0.00     0.050 A 
ATOM     18  C12 LG1 d5015      19.657  25.322  55.838  0.00  0.00     0.019 A 
ENDBRANCH  13  14
TORSDOF 1
ENDMDL
MODEL 5
REMARK VINA RESULT:    -5.406      3.187      4.173
REMARK INTER + INTRA:          -5.876
REMARK INTER:                  -5.722
REMARK INTRA:                  -0.154
REMARK UNBOUND:                -0.154
REMARK  1 active torsions:
REMARK  status: ('A' for Active; 'I' for Inactive)
REMARK    1  A    between atoms: C10_13  and  C11_14 
ROOT
ATOM      1  C1  LG1 d5015      21.742  26.763  49.575  0.00  0.00     0.018 C 
ATOM      2  C2  LG1 d5015      21.963  27.958  50.427  0.00  0.00     0.193 C 
ATOM      3  C3  LG1 d5015      22.009  27.675  51.878  0.00  0.00     0.049 A 
ATOM      4  C4  LG1 d5015      22.099  28.725  52.793  0.00  0.00     0.037 A 
ATOM      5  C5  LG1 d5015      22.202  28.447  54.157  0.00  0.00     0.012 A 
ATOM      6  C6  LG1 d5015      22.226  27.125  54.605  0.00  0.00     0.022 A 
ATOM      7  C7  LG1 d5015      22.139  26.076  53.689  0.00  0.00     0.039 A 
ATOM      8  C8  LG1 d5015      22.014  26.349  52.326  0.00  0.00     0.083 A 
ATOM      9  O1  LG1 d5015      21.951  25.272  51.481  0.00  0.00    -0.346 OA
ATOM     10  C9  LG1 d5015      21.233  25.545  50.274  0.00  0.00     0.218 C 
ATOM     11 BR1  LG1 d5015      22.293  29.865  55.405  0.00  0.00    -0.051 Br
ATOM     12  O2  LG1 d5015      22.098  29.090  49.987  0.00  0.00    -0.287 OA
ATOM     13  C10 LG1 d5015      21.997  26.836  48.263  0.00  0.00     0.025 C 
ENDROOT
BRANCH  13  14
ATOM     14  C11 LG1 d5015      21.824  25.755  47.340  0.00  0.00    -0.029 A 
ATOM     15  C14 LG1 d5015      20.625  25.486  46.719  0.00  0.00     0.061 A 
ATOM     16  S1  LG1 d5015      20.732  24.135  45.673  0.00  0.00    -0.113 SA
ATOM     17  C13 LG1 d5015      22.386  23.904  46.050  0.00  0.00     0.050 A 
ATOM     18  C12 LG1 d5015      22.845  24.839  46.952  0.00  0.00     0.019 A 
ENDBRANCH  13  14
TORSDOF 1
ENDMDL
