REMARK INTER + INTRA:          -8.371
REMARK INTER:                  -7.858
REMARK INTRA:                  -0.513
REMARK UNBOUND:                -0.521
REMARK  2 active torsions:
REMARK  status: ('A' for Active; 'I' for Inactive)
REMARK    1  A    between atoms: C1_1  and  N1_15 
REMARK    2  A    between atoms: C7_9  and  C4_4 
ROOT
ATOM      1  C1  LG1 d5015      22.751  27.260  49.852  0.00  0.00     0.141 A 
ATOM      2  C2  LG1 d5015      21.638  27.704  50.566  0.00  0.00     0.187 A 
ATOM      3  C3  LG1 d5015      21.493  27.367  51.911  0.00  0.00     0.175 A 
ATOM      4  C4  LG1 d5015      22.460  26.586  52.543  0.00  0.00     0.131 A 
ATOM      5  C5  LG1 d5015      23.572  26.141  51.829  0.00  0.00     0.175 A 
ATOM      6  C6  LG1 d5015      23.718  26.478  50.484  0.00  0.00     0.187 A 
ATOM      7  F1  LG1 d5015      24.793  26.044  49.811  0.00  0.00    -0.200 F 
ATOM      8  F2  LG1 d5015      24.507  25.388  52.429  0.00  0.00    -0.202 F 
ATOM      9  F6  LG1 d5015      20.419  27.801  52.589  0.00  0.00    -0.202 F 
ATOM     10  F7  LG1 d5015      20.701  28.457  49.971  0.00  0.00    -0.200 F 
ENDROOT
BRANCH   1  11
ATOM     11  N1  LG1 d5015      22.896  27.593  48.517  0.00  0.00    -0.232 N 
ATOM     12  N2  LG1 d5015      23.452  28.769  48.179  0.00  0.00    -0.172 NA
ATOM     13  C10 LG1 d5015      23.425  28.745  46.845  0.00  0.00     0.053 A 
ATOM     14  C9  LG1 d5015      22.855  27.563  46.334  0.00  0.00     0.055 A 
ATOM     15  C11 LG1 d5015      23.961  29.885  46.081  0.00  0.00     0.072 C 
ATOM     16  C8  LG1 d5015      22.521  26.834  47.449  0.00  0.00     0.035 A 
ATOM     17  C12 LG1 d5015      21.891  25.505  47.572  0.00  0.00     0.070 C 
ENDBRANCH   1  11
BRANCH   4  18
ATOM     18  C7  LG1 d5015      22.303  26.225  53.982  0.00  0.00     0.423 C 
ATOM     19  F4  LG1 d5015      21.554  27.119  54.692  0.00  0.00    -0.166 F 
ATOM     20  F3  LG1 d5015      23.488  26.138  54.656  0.00  0.00    -0.166 F 
ATOM     21  F5  LG1 d5015      21.694  25.016  54.157  0.00  0.00    -0.166 F 
ENDBRANCH   4  18
TORSDOF 2
ENDMDL
