REMARK INTER + INTRA:          -8.387
REMARK INTER:                  -7.876
REMARK INTRA:                  -0.511
REMARK UNBOUND:                -0.521
REMARK  2 active torsions:
REMARK  status: ('A' for Active; 'I' for Inactive)
REMARK    1  A    between atoms: C1_1  and  N1_15 
REMARK    2  A    between atoms: C7_9  and  C4_4 
ROOT
ATOM      1  C1  LG1 d5015      22.747  27.271  49.856  0.00  0.00     0.141 A 
ATOM      2  C2  LG1 d5015      23.716  26.489  50.485  0.00  0.00     0.187 A 
ATOM      3  C3  LG1 d5015      23.577  26.156  51.832  0.00  0.00     0.175 A 
ATOM      4  C4  LG1 d5015      22.470  26.606  52.551  0.00  0.00     0.131 A 
ATOM      5  C5  LG1 d5015      21.502  27.389  51.924  0.00  0.00     0.175 A 
ATOM      6  C6  LG1 d5015      21.640  27.721  50.577  0.00  0.00     0.187 A 
ATOM      7  F1  LG1 d5015      20.701  28.475  49.986  0.00  0.00    -0.200 F 
ATOM      8  F2  LG1 d5015      20.434  27.826  52.608  0.00  0.00    -0.202 F 
ATOM      9  F6  LG1 d5015      24.514  25.402  52.426  0.00  0.00    -0.202 F 
ATOM     10  F7  LG1 d5015      24.785  26.050  49.805  0.00  0.00    -0.200 F 
ENDROOT
BRANCH   1  11
ATOM     11  N1  LG1 d5015      22.884  27.603  48.521  0.00  0.00    -0.232 N 
ATOM     12  N2  LG1 d5015      23.427  28.784  48.178  0.00  0.00    -0.172 NA
ATOM     13  C10 LG1 d5015      23.395  28.756  46.844  0.00  0.00     0.053 A 
ATOM     14  C9  LG1 d5015      22.836  27.567  46.337  0.00  0.00     0.055 A 
ATOM     15  C11 LG1 d5015      23.917  29.899  46.076  0.00  0.00     0.072 C 
ATOM     16  C8  LG1 d5015      22.514  26.837  47.455  0.00  0.00     0.035 A 
ATOM     17  C12 LG1 d5015      21.898  25.502  47.584  0.00  0.00     0.070 C 
ENDBRANCH   1  11
BRANCH   4  18
ATOM     18  C7  LG1 d5015      22.323  26.249  53.993  0.00  0.00     0.423 C 
ATOM     19  F4  LG1 d5015      21.612  27.166  54.713  0.00  0.00    -0.166 F 
ATOM     20  F3  LG1 d5015      23.514  26.127  54.650  0.00  0.00    -0.166 F 
ATOM     21  F5  LG1 d5015      21.680  25.060  54.176  0.00  0.00    -0.166 F 
ENDBRANCH   4  18
TORSDOF 2
ENDMDL
