REMARK INTER + INTRA:          -6.200
REMARK INTER:                  -6.032
REMARK INTRA:                  -0.169
REMARK UNBOUND:                -0.164
REMARK  1 active torsions:
REMARK  status: ('A' for Active; 'I' for Inactive)
REMARK    1  A    between atoms: C10_13  and  C11_14 
ROOT
ATOM      1  C1  LG1 d5015      20.415  25.710  52.816  0.00  0.00     0.018 C 
ATOM      2  C2  LG1 d5015      20.536  26.696  51.714  0.00  0.00     0.193 C 
ATOM      3  C3  LG1 d5015      21.695  26.479  50.822  0.00  0.00     0.049 A 
ATOM      4  C4  LG1 d5015      21.986  27.401  49.814  0.00  0.00     0.037 A 
ATOM      5  C5  LG1 d5015      23.045  27.157  48.939  0.00  0.00     0.012 A 
ATOM      6  C6  LG1 d5015      23.805  25.993  49.061  0.00  0.00     0.022 A 
ATOM      7  C7  LG1 d5015      23.511  25.070  50.066  0.00  0.00     0.039 A 
ATOM      8  C8  LG1 d5015      22.468  25.319  50.958  0.00  0.00     0.083 A 
ATOM      9  O1  LG1 d5015      22.223  24.364  51.909  0.00  0.00    -0.346 OA
ATOM     10  C9  LG1 d5015      21.634  24.893  53.101  0.00  0.00     0.218 C 
ATOM     11 BR1  LG1 d5015      23.464  28.416  47.591  0.00  0.00    -0.051 Br
ATOM     12  O2  LG1 d5015      19.755  27.620  51.541  0.00  0.00    -0.287 OA
ATOM     13  C10 LG1 d5015      19.259  25.608  53.482  0.00  0.00     0.025 C 
ENDROOT
BRANCH  13  14
ATOM     14  C11 LG1 d5015      19.020  24.696  54.561  0.00  0.00    -0.029 A 
ATOM     15  C14 LG1 d5015      18.523  23.427  54.370  0.00  0.00     0.061 A 
ATOM     16  S1  LG1 d5015      18.349  22.577  55.846  0.00  0.00    -0.113 SA
ATOM     17  C13 LG1 d5015      18.939  23.908  56.745  0.00  0.00     0.050 A 
ATOM     18  C12 LG1 d5015      19.262  24.975  55.938  0.00  0.00     0.019 A 
ENDBRANCH  13  14
TORSDOF 1
ENDMDL
