REMARK INTER + INTRA:          -6.622
REMARK INTER:                  -6.454
REMARK INTRA:                  -0.168
REMARK UNBOUND:                -0.163
REMARK  1 active torsions:
REMARK  status: ('A' for Active; 'I' for Inactive)
REMARK    1  A    between atoms: C10_13  and  C11_14 
ROOT
ATOM      1  C1  LG1 d5015      21.735  25.540  50.732  0.00  0.00     0.018 C 
ATOM      2  C2  LG1 d5015      21.730  24.602  51.883  0.00  0.00     0.193 C 
ATOM      3  C3  LG1 d5015      20.426  24.486  52.571  0.00  0.00     0.049 A 
ATOM      4  C4  LG1 d5015      20.315  23.723  53.735  0.00  0.00     0.037 A 
ATOM      5  C5  LG1 d5015      19.069  23.569  54.344  0.00  0.00     0.012 A 
ATOM      6  C6  LG1 d5015      17.936  24.164  53.788  0.00  0.00     0.022 A 
ATOM      7  C7  LG1 d5015      18.047  24.923  52.622  0.00  0.00     0.039 A 
ATOM      8  C8  LG1 d5015      19.294  25.099  52.022  0.00  0.00     0.083 A 
ATOM      9  O1  LG1 d5015      19.329  25.841  50.870  0.00  0.00    -0.346 OA
ATOM     10  C9  LG1 d5015      20.586  26.491  50.657  0.00  0.00     0.218 C 
ATOM     11 BR1  LG1 d5015      18.917  22.563  55.939  0.00  0.00    -0.051 Br
ATOM     12  O2  LG1 d5015      22.710  23.971  52.248  0.00  0.00    -0.287 OA
ATOM     13  C10 LG1 d5015      22.741  25.492  49.851  0.00  0.00     0.025 C 
ENDROOT
BRANCH  13  14
ATOM     14  C11 LG1 d5015      22.857  26.341  48.703  0.00  0.00    -0.029 A 
ATOM     15  C14 LG1 d5015      22.334  26.012  47.473  0.00  0.00     0.061 A 
ATOM     16  S1  LG1 d5015      22.632  27.225  46.303  0.00  0.00    -0.113 SA
ATOM     17  C13 LG1 d5015      23.463  28.197  47.441  0.00  0.00     0.050 A 
ATOM     18  C12 LG1 d5015      23.511  27.608  48.685  0.00  0.00     0.019 A 
ENDBRANCH  13  14
TORSDOF 1
ENDMDL
