REMARK INTER + INTRA:          -6.149
REMARK INTER:                  -5.992
REMARK INTRA:                  -0.157
REMARK UNBOUND:                -0.157
REMARK  1 active torsions:
REMARK  status: ('A' for Active; 'I' for Inactive)
REMARK    1  A    between atoms: C10_13  and  C11_14 
ROOT
ATOM      1  C1  LG1 d5015      20.333  24.437  52.472  0.00  0.00     0.018 C 
ATOM      2  C2  LG1 d5015      21.376  24.638  51.435  0.00  0.00     0.193 C 
ATOM      3  C3  LG1 d5015      20.904  25.332  50.218  0.00  0.00     0.049 A 
ATOM      4  C4  LG1 d5015      21.757  25.483  49.123  0.00  0.00     0.037 A 
ATOM      5  C5  LG1 d5015      21.324  26.193  48.002  0.00  0.00     0.012 A 
ATOM      6  C6  LG1 d5015      20.049  26.759  47.978  0.00  0.00     0.022 A 
ATOM      7  C7  LG1 d5015      19.198  26.611  49.074  0.00  0.00     0.039 A 
ATOM      8  C8  LG1 d5015      19.618  25.884  50.188  0.00  0.00     0.083 A 
ATOM      9  O1  LG1 d5015      18.739  25.792  51.236  0.00  0.00    -0.346 OA
ATOM     10  C9  LG1 d5015      18.919  24.608  52.020  0.00  0.00     0.218 C 
ATOM     11 BR1  LG1 d5015      22.463  26.375  46.503  0.00  0.00    -0.051 Br
ATOM     12  O2  LG1 d5015      22.534  24.265  51.557  0.00  0.00    -0.287 OA
ATOM     13  C10 LG1 d5015      20.699  24.118  53.719  0.00  0.00     0.025 C 
ENDROOT
BRANCH  13  14
ATOM     14  C11 LG1 d5015      19.788  23.901  54.803  0.00  0.00    -0.029 A 
ATOM     15  C14 LG1 d5015      19.467  24.880  55.717  0.00  0.00     0.061 A 
ATOM     16  S1  LG1 d5015      18.353  24.321  56.891  0.00  0.00    -0.113 SA
ATOM     17  C13 LG1 d5015      18.298  22.765  56.179  0.00  0.00     0.050 A 
ATOM     18  C12 LG1 d5015      19.111  22.676  55.070  0.00  0.00     0.019 A 
ENDBRANCH  13  14
TORSDOF 1
ENDMDL
