REMARK INTER + INTRA:          -8.128
REMARK INTER:                  -7.607
REMARK INTRA:                  -0.521
REMARK UNBOUND:                -0.521
REMARK  2 active torsions:
REMARK  status: ('A' for Active; 'I' for Inactive)
REMARK    1  A    between atoms: C1_1  and  N1_15 
REMARK    2  A    between atoms: C7_9  and  C4_4 
ROOT
ATOM      1  C1  LG1 d5015      22.154  27.733  49.688  0.00  0.00     0.141 A 
ATOM      2  C2  LG1 d5015      22.081  27.776  51.080  0.00  0.00     0.187 A 
ATOM      3  C3  LG1 d5015      22.747  26.817  51.843  0.00  0.00     0.175 A 
ATOM      4  C4  LG1 d5015      23.485  25.815  51.214  0.00  0.00     0.131 A 
ATOM      5  C5  LG1 d5015      23.557  25.771  49.823  0.00  0.00     0.175 A 
ATOM      6  C6  LG1 d5015      22.892  26.730  49.060  0.00  0.00     0.187 A 
ATOM      7  F1  LG1 d5015      22.971  26.676  47.722  0.00  0.00    -0.200 F 
ATOM      8  F2  LG1 d5015      24.265  24.810  49.209  0.00  0.00    -0.202 F 
ATOM      9  F6  LG1 d5015      22.671  26.868  53.182  0.00  0.00    -0.202 F 
ATOM     10  F7  LG1 d5015      21.375  28.734  51.698  0.00  0.00    -0.200 F 
ENDROOT
BRANCH   1  11
ATOM     11  N1  LG1 d5015      21.494  28.683  48.930  0.00  0.00    -0.232 N 
ATOM     12  N2  LG1 d5015      22.139  29.799  48.549  0.00  0.00    -0.172 NA
ATOM     13  C10 LG1 d5015      21.211  30.463  47.855  0.00  0.00     0.053 A 
ATOM     14  C9  LG1 d5015      19.983  29.777  47.793  0.00  0.00     0.055 A 
ATOM     15  C11 LG1 d5015      21.540  31.768  47.256  0.00  0.00     0.072 C 
ATOM     16  C8  LG1 d5015      20.200  28.621  48.504  0.00  0.00     0.035 A 
ATOM     17  C12 LG1 d5015      19.297  27.492  48.797  0.00  0.00     0.070 C 
ENDBRANCH   1  11
BRANCH   4  18
ATOM     18  C7  LG1 d5015      24.196  24.788  52.031  0.00  0.00     0.423 C 
ATOM     19  F4  LG1 d5015      24.551  25.229  53.274  0.00  0.00    -0.166 F 
ATOM     20  F3  LG1 d5015      25.358  24.347  51.465  0.00  0.00    -0.166 F 
ATOM     21  F5  LG1 d5015      23.443  23.670  52.240  0.00  0.00    -0.166 F 
ENDBRANCH   4  18
TORSDOF 2
ENDMDL
