REMARK INTER + INTRA:          -5.828
REMARK INTER:                  -5.621
REMARK INTRA:                  -0.207
REMARK UNBOUND:                -0.208
REMARK  1 active torsions:
REMARK  status: ('A' for Active; 'I' for Inactive)
REMARK    1  A    between atoms: C1_1  and  N1_10 
ROOT
ATOM      1  C1  LG1 d5015      22.063  26.342  50.431  0.00  0.00     0.056 A 
ATOM      2  C2  LG1 d5015      23.282  25.810  50.013  0.00  0.00    -0.033 A 
ATOM      3  C3  LG1 d5015      23.414  25.301  48.720  0.00  0.00     0.028 A 
ATOM      4  C4  LG1 d5015      22.327  25.324  47.847  0.00  0.00     0.012 A 
ATOM      5  C5  LG1 d5015      21.106  25.855  48.267  0.00  0.00     0.028 A 
ATOM      6  C6  LG1 d5015      20.975  26.363  49.558  0.00  0.00    -0.033 A 
ATOM      7  C7  LG1 d5015      19.655  26.925  49.979  0.00  0.00     0.050 C 
ATOM      8 BR1  LG1 d5015      22.506  24.632  46.097  0.00  0.00    -0.051 Br
ATOM      9  C8  LG1 d5015      24.466  25.774  50.924  0.00  0.00     0.050 C 
ENDROOT
BRANCH   1  10
ATOM     10  N1  LG1 d5015      21.927  26.867  51.761  0.00  0.00    -0.265 N 
ATOM     11  C11 LG1 d5015      21.509  26.116  52.859  0.00  0.00     0.148 C 
ATOM     12  S2  LG1 d5015      21.292  24.462  53.023  0.00  0.00    -0.052 SA
ATOM     13  S1  LG1 d5015      21.305  27.176  54.249  0.00  0.00    -0.090 SA
ATOM     14  C10 LG1 d5015      22.071  28.583  53.443  0.00  0.00     0.185 C 
ATOM     15  C9  LG1 d5015      22.209  28.220  51.993  0.00  0.00     0.239 C 
ATOM     16  O1  LG1 d5015      22.520  29.071  51.162  0.00  0.00    -0.272 OA
ENDBRANCH   1  10
TORSDOF 1
ENDMDL
