REMARK INTER + INTRA:          -6.323
REMARK INTER:                  -6.182
REMARK INTRA:                  -0.141
REMARK UNBOUND:                -0.164
REMARK  1 active torsions:
REMARK  status: ('A' for Active; 'I' for Inactive)
REMARK    1  A    between atoms: C10_13  and  C11_14 
ROOT
ATOM      1  C1  LG1 d5015      22.161  26.319  52.381  0.00  0.00     0.018 C 
ATOM      2  C2  LG1 d5015      21.998  25.458  51.183  0.00  0.00     0.193 C 
ATOM      3  C3  LG1 d5015      22.377  26.103  49.909  0.00  0.00     0.049 A 
ATOM      4  C4  LG1 d5015      22.165  25.441  48.698  0.00  0.00     0.037 A 
ATOM      5  C5  LG1 d5015      22.582  26.032  47.504  0.00  0.00     0.012 A 
ATOM      6  C6  LG1 d5015      23.217  27.274  47.519  0.00  0.00     0.022 A 
ATOM      7  C7  LG1 d5015      23.432  27.934  48.730  0.00  0.00     0.039 A 
ATOM      8  C8  LG1 d5015      22.998  27.358  49.924  0.00  0.00     0.083 A 
ATOM      9  O1  LG1 d5015      23.256  28.052  51.077  0.00  0.00    -0.346 OA
ATOM     10  C9  LG1 d5015      22.314  27.783  52.120  0.00  0.00     0.218 C 
ATOM     11 BR1  LG1 d5015      22.270  25.154  45.858  0.00  0.00    -0.051 Br
ATOM     12  O2  LG1 d5015      21.584  24.309  51.226  0.00  0.00    -0.287 OA
ATOM     13  C10 LG1 d5015      22.159  25.761  53.597  0.00  0.00     0.025 C 
ENDROOT
BRANCH  13  14
ATOM     14  C11 LG1 d5015      22.309  26.484  54.824  0.00  0.00    -0.029 A 
ATOM     15  C14 LG1 d5015      21.256  27.100  55.462  0.00  0.00     0.061 A 
ATOM     16  S1  LG1 d5015      21.747  27.881  56.904  0.00  0.00    -0.113 SA
ATOM     17  C13 LG1 d5015      23.373  27.398  56.677  0.00  0.00     0.050 A 
ATOM     18  C12 LG1 d5015      23.536  26.657  55.529  0.00  0.00     0.019 A 
ENDBRANCH  13  14
TORSDOF 1
ENDMDL
