REMARK INTER + INTRA:          -6.632
REMARK INTER:                  -6.465
REMARK INTRA:                  -0.167
REMARK UNBOUND:                -0.164
REMARK  1 active torsions:
REMARK  status: ('A' for Active; 'I' for Inactive)
REMARK    1  A    between atoms: C10_13  and  C11_14 
ROOT
ATOM      1  C1  LG1 d5015      21.732  25.537  50.724  0.00  0.00     0.018 C 
ATOM      2  C2  LG1 d5015      21.717  24.611  51.884  0.00  0.00     0.193 C 
ATOM      3  C3  LG1 d5015      20.406  24.497  52.558  0.00  0.00     0.049 A 
ATOM      4  C4  LG1 d5015      20.284  23.746  53.729  0.00  0.00     0.037 A 
ATOM      5  C5  LG1 d5015      19.032  23.594  54.325  0.00  0.00     0.012 A 
ATOM      6  C6  LG1 d5015      17.903  24.179  53.750  0.00  0.00     0.022 A 
ATOM      7  C7  LG1 d5015      18.025  24.926  52.578  0.00  0.00     0.039 A 
ATOM      8  C8  LG1 d5015      19.278  25.100  51.989  0.00  0.00     0.083 A 
ATOM      9  O1  LG1 d5015      19.323  25.830  50.831  0.00  0.00    -0.346 OA
ATOM     10  C9  LG1 d5015      20.580  26.483  50.625  0.00  0.00     0.218 C 
ATOM     11 BR1  LG1 d5015      18.865  22.604  55.929  0.00  0.00    -0.051 Br
ATOM     12  O2  LG1 d5015      22.695  23.987  52.267  0.00  0.00    -0.287 OA
ATOM     13  C10 LG1 d5015      22.748  25.483  49.854  0.00  0.00     0.025 C 
ENDROOT
BRANCH  13  14
ATOM     14  C11 LG1 d5015      22.874  26.321  48.699  0.00  0.00    -0.029 A 
ATOM     15  C14 LG1 d5015      22.364  25.978  47.467  0.00  0.00     0.061 A 
ATOM     16  S1  LG1 d5015      22.671  27.180  46.288  0.00  0.00    -0.113 SA
ATOM     17  C13 LG1 d5015      23.490  28.164  47.423  0.00  0.00     0.050 A 
ATOM     18  C12 LG1 d5015      23.527  27.588  48.674  0.00  0.00     0.019 A 
ENDBRANCH  13  14
TORSDOF 1
ENDMDL
