REMARK INTER + INTRA:          -6.433
REMARK INTER:                  -6.266
REMARK INTRA:                  -0.167
REMARK UNBOUND:                -0.164
REMARK  1 active torsions:
REMARK  status: ('A' for Active; 'I' for Inactive)
REMARK    1  A    between atoms: C10_13  and  C11_14 
ROOT
ATOM      1  C1  LG1 d5015      21.821  26.229  51.410  0.00  0.00     0.018 C 
ATOM      2  C2  LG1 d5015      22.838  26.638  50.408  0.00  0.00     0.193 C 
ATOM      3  C3  LG1 d5015      22.383  27.682  49.466  0.00  0.00     0.049 A 
ATOM      4  C4  LG1 d5015      23.204  28.073  48.406  0.00  0.00     0.037 A 
ATOM      5  C5  LG1 d5015      22.793  29.102  47.557  0.00  0.00     0.012 A 
ATOM      6  C6  LG1 d5015      21.573  29.744  47.770  0.00  0.00     0.022 A 
ATOM      7  C7  LG1 d5015      20.755  29.354  48.831  0.00  0.00     0.039 A 
ATOM      8  C8  LG1 d5015      21.150  28.312  49.670  0.00  0.00     0.083 A 
ATOM      9  O1  LG1 d5015      20.308  27.993  50.702  0.00  0.00    -0.346 OA
ATOM     10  C9  LG1 d5015      20.412  26.625  51.111  0.00  0.00     0.218 C 
ATOM     11 BR1  LG1 d5015      23.886  29.617  46.101  0.00  0.00    -0.051 Br
ATOM     12  O2  LG1 d5015      23.962  26.161  50.350  0.00  0.00    -0.287 OA
ATOM     13  C10 LG1 d5015      22.205  25.543  52.493  0.00  0.00     0.025 C 
ENDROOT
BRANCH  13  14
ATOM     14  C11 LG1 d5015      21.320  25.096  53.527  0.00  0.00    -0.029 A 
ATOM     15  C14 LG1 d5015      21.024  25.853  54.637  0.00  0.00     0.061 A 
ATOM     16  S1  LG1 d5015      19.938  25.053  55.690  0.00  0.00    -0.113 SA
ATOM     17  C13 LG1 d5015      19.861  23.687  54.662  0.00  0.00     0.050 A 
ATOM     18  C12 LG1 d5015      20.646  23.840  53.541  0.00  0.00     0.019 A 
ENDBRANCH  13  14
TORSDOF 1
ENDMDL
