REMARK INTER + INTRA:          -6.201
REMARK INTER:                  -6.036
REMARK INTRA:                  -0.164
REMARK UNBOUND:                -0.164
REMARK  1 active torsions:
REMARK  status: ('A' for Active; 'I' for Inactive)
REMARK    1  A    between atoms: C10_13  and  C11_14 
ROOT
ATOM      1  C1  LG1 d5015      20.288  24.420  52.464  0.00  0.00     0.018 C 
ATOM      2  C2  LG1 d5015      21.329  24.623  51.426  0.00  0.00     0.193 C 
ATOM      3  C3  LG1 d5015      20.862  25.347  50.225  0.00  0.00     0.049 A 
ATOM      4  C4  LG1 d5015      21.712  25.505  49.128  0.00  0.00     0.037 A 
ATOM      5  C5  LG1 d5015      21.285  26.242  48.023  0.00  0.00     0.012 A 
ATOM      6  C6  LG1 d5015      20.019  26.828  48.015  0.00  0.00     0.022 A 
ATOM      7  C7  LG1 d5015      19.172  26.674  49.113  0.00  0.00     0.039 A 
ATOM      8  C8  LG1 d5015      19.585  25.920  50.212  0.00  0.00     0.083 A 
ATOM      9  O1  LG1 d5015      18.710  25.823  51.262  0.00  0.00    -0.346 OA
ATOM     10  C9  LG1 d5015      18.874  24.622  52.023  0.00  0.00     0.218 C 
ATOM     11 BR1  LG1 d5015      22.419  26.433  46.521  0.00  0.00    -0.051 Br
ATOM     12  O2  LG1 d5015      22.481  24.230  51.535  0.00  0.00    -0.287 OA
ATOM     13  C10 LG1 d5015      20.655  24.072  53.704  0.00  0.00     0.025 C 
ENDROOT
BRANCH  13  14
ATOM     14  C11 LG1 d5015      19.746  23.850  54.788  0.00  0.00    -0.029 A 
ATOM     15  C14 LG1 d5015      19.397  24.834  55.684  0.00  0.00     0.061 A 
ATOM     16  S1  LG1 d5015      18.295  24.267  56.864  0.00  0.00    -0.113 SA
ATOM     17  C13 LG1 d5015      18.280  22.699  56.177  0.00  0.00     0.050 A 
ATOM     18  C12 LG1 d5015      19.098  22.613  55.073  0.00  0.00     0.019 A 
ENDBRANCH  13  14
TORSDOF 1
ENDMDL
