REMARK INTER + INTRA:          -6.440
REMARK INTER:                  -6.274
REMARK INTRA:                  -0.166
REMARK UNBOUND:                -0.157
REMARK  1 active torsions:
REMARK  status: ('A' for Active; 'I' for Inactive)
REMARK    1  A    between atoms: C10_13  and  C11_14 
ROOT
ATOM      1  C1  LG1 d5015      21.811  26.223  51.393  0.00  0.00     0.018 C 
ATOM      2  C2  LG1 d5015      22.827  26.629  50.390  0.00  0.00     0.193 C 
ATOM      3  C3  LG1 d5015      22.376  27.679  49.452  0.00  0.00     0.049 A 
ATOM      4  C4  LG1 d5015      23.196  28.069  48.391  0.00  0.00     0.037 A 
ATOM      5  C5  LG1 d5015      22.789  29.103  47.547  0.00  0.00     0.012 A 
ATOM      6  C6  LG1 d5015      21.573  29.752  47.766  0.00  0.00     0.022 A 
ATOM      7  C7  LG1 d5015      20.756  29.364  48.828  0.00  0.00     0.039 A 
ATOM      8  C8  LG1 d5015      21.147  28.316  49.662  0.00  0.00     0.083 A 
ATOM      9  O1  LG1 d5015      20.306  27.998  50.695  0.00  0.00    -0.346 OA
ATOM     10  C9  LG1 d5015      20.403  26.628  51.100  0.00  0.00     0.218 C 
ATOM     11 BR1  LG1 d5015      23.881  29.617  46.090  0.00  0.00    -0.051 Br
ATOM     12  O2  LG1 d5015      23.948  26.146  50.327  0.00  0.00    -0.287 OA
ATOM     13  C10 LG1 d5015      22.193  25.531  52.473  0.00  0.00     0.025 C 
ENDROOT
BRANCH  13  14
ATOM     14  C11 LG1 d5015      21.309  25.085  53.507  0.00  0.00    -0.029 A 
ATOM     15  C14 LG1 d5015      21.005  25.849  54.611  0.00  0.00     0.061 A 
ATOM     16  S1  LG1 d5015      19.921  25.048  55.668  0.00  0.00    -0.113 SA
ATOM     17  C13 LG1 d5015      19.857  23.675  54.649  0.00  0.00     0.050 A 
ATOM     18  C12 LG1 d5015      20.643  23.825  53.528  0.00  0.00     0.019 A 
ENDBRANCH  13  14
TORSDOF 1
ENDMDL
