REMARK INTER + INTRA:          -6.439
REMARK INTER:                  -6.272
REMARK INTRA:                  -0.167
REMARK UNBOUND:                -0.163
REMARK  1 active torsions:
REMARK  status: ('A' for Active; 'I' for Inactive)
REMARK    1  A    between atoms: C10_13  and  C11_14 
ROOT
ATOM      1  C1  LG1 d5015      21.820  26.211  51.371  0.00  0.00     0.018 C 
ATOM      2  C2  LG1 d5015      22.830  26.609  50.358  0.00  0.00     0.193 C 
ATOM      3  C3  LG1 d5015      22.382  27.669  49.431  0.00  0.00     0.049 A 
ATOM      4  C4  LG1 d5015      23.194  28.054  48.362  0.00  0.00     0.037 A 
ATOM      5  C5  LG1 d5015      22.791  29.098  47.528  0.00  0.00     0.012 A 
ATOM      6  C6  LG1 d5015      21.586  29.761  47.764  0.00  0.00     0.022 A 
ATOM      7  C7  LG1 d5015      20.776  29.378  48.835  0.00  0.00     0.039 A 
ATOM      8  C8  LG1 d5015      21.164  28.322  49.659  0.00  0.00     0.083 A 
ATOM      9  O1  LG1 d5015      20.331  28.009  50.700  0.00  0.00    -0.346 OA
ATOM     10  C9  LG1 d5015      20.414  26.637  51.097  0.00  0.00     0.218 C 
ATOM     11 BR1  LG1 d5015      23.872  29.604  46.061  0.00  0.00    -0.051 Br
ATOM     12  O2  LG1 d5015      23.944  26.112  50.279  0.00  0.00    -0.287 OA
ATOM     13  C10 LG1 d5015      22.206  25.509  52.443  0.00  0.00     0.025 C 
ENDROOT
BRANCH  13  14
ATOM     14  C11 LG1 d5015      21.329  25.069  53.486  0.00  0.00    -0.029 A 
ATOM     15  C14 LG1 d5015      21.044  25.833  54.595  0.00  0.00     0.061 A 
ATOM     16  S1  LG1 d5015      19.964  25.042  55.661  0.00  0.00    -0.113 SA
ATOM     17  C13 LG1 d5015      19.874  23.671  54.639  0.00  0.00     0.050 A 
ATOM     18  C12 LG1 d5015      20.649  23.816  53.511  0.00  0.00     0.019 A 
ENDBRANCH  13  14
TORSDOF 1
ENDMDL
