REMARK INTER + INTRA:          -6.213
REMARK INTER:                  -6.051
REMARK INTRA:                  -0.162
REMARK UNBOUND:                -0.163
REMARK  1 active torsions:
REMARK  status: ('A' for Active; 'I' for Inactive)
REMARK    1  A    between atoms: C10_13  and  C11_14 
ROOT
ATOM      1  C1  LG1 d5015      20.462  25.754  52.790  0.00  0.00     0.018 C 
ATOM      2  C2  LG1 d5015      20.559  26.723  51.670  0.00  0.00     0.193 C 
ATOM      3  C3  LG1 d5015      21.708  26.501  50.767  0.00  0.00     0.049 A 
ATOM      4  C4  LG1 d5015      21.976  27.409  49.740  0.00  0.00     0.037 A 
ATOM      5  C5  LG1 d5015      23.026  27.159  48.854  0.00  0.00     0.012 A 
ATOM      6  C6  LG1 d5015      23.798  26.005  48.985  0.00  0.00     0.022 A 
ATOM      7  C7  LG1 d5015      23.526  25.096  50.010  0.00  0.00     0.039 A 
ATOM      8  C8  LG1 d5015      22.492  25.351  50.911  0.00  0.00     0.083 A 
ATOM      9  O1  LG1 d5015      22.269  24.409  51.881  0.00  0.00    -0.346 OA
ATOM     10  C9  LG1 d5015      21.691  24.953  53.072  0.00  0.00     0.218 C 
ATOM     11 BR1  LG1 d5015      23.415  28.400  47.480  0.00  0.00    -0.051 Br
ATOM     12  O2  LG1 d5015      19.767  27.637  51.493  0.00  0.00    -0.287 OA
ATOM     13  C10 LG1 d5015      19.316  25.653  53.474  0.00  0.00     0.025 C 
ENDROOT
BRANCH  13  14
ATOM     14  C11 LG1 d5015      19.100  24.757  54.571  0.00  0.00    -0.029 A 
ATOM     15  C14 LG1 d5015      18.537  23.510  54.418  0.00  0.00     0.061 A 
ATOM     16  S1  LG1 d5015      18.411  22.675  55.906  0.00  0.00    -0.113 SA
ATOM     17  C13 LG1 d5015      19.111  23.983  56.762  0.00  0.00     0.050 A 
ATOM     18  C12 LG1 d5015      19.433  25.031  55.929  0.00  0.00     0.019 A 
ENDBRANCH  13  14
TORSDOF 1
ENDMDL
