REMARK INTER + INTRA:          -8.180
REMARK INTER:                  -7.624
REMARK INTRA:                  -0.556
REMARK UNBOUND:                -0.521
REMARK  2 active torsions:
REMARK  status: ('A' for Active; 'I' for Inactive)
REMARK    1  A    between atoms: C1_1  and  N1_15 
REMARK    2  A    between atoms: C7_9  and  C4_4 
ROOT
ATOM      1  C1  LG1 d5015      21.144  24.987  52.201  0.00  0.00     0.141 A 
ATOM      2  C2  LG1 d5015      20.446  25.795  51.303  0.00  0.00     0.187 A 
ATOM      3  C3  LG1 d5015      21.036  26.164  50.094  0.00  0.00     0.175 A 
ATOM      4  C4  LG1 d5015      22.323  25.726  49.783  0.00  0.00     0.131 A 
ATOM      5  C5  LG1 d5015      23.021  24.919  50.682  0.00  0.00     0.175 A 
ATOM      6  C6  LG1 d5015      22.431  24.550  51.890  0.00  0.00     0.187 A 
ATOM      7  F1  LG1 d5015      23.114  23.773  52.744  0.00  0.00    -0.200 F 
ATOM      8  F2  LG1 d5015      24.260  24.494  50.391  0.00  0.00    -0.202 F 
ATOM      9  F6  LG1 d5015      20.356  26.940  49.237  0.00  0.00    -0.202 F 
ATOM     10  F7  LG1 d5015      19.208  26.223  51.588  0.00  0.00    -0.200 F 
ENDROOT
BRANCH   1  11
ATOM     11  N1  LG1 d5015      20.560  24.621  53.400  0.00  0.00    -0.232 N 
ATOM     12  N2  LG1 d5015      19.891  23.459  53.490  0.00  0.00    -0.172 NA
ATOM     13  C10 LG1 d5015      19.477  23.445  54.759  0.00  0.00     0.053 A 
ATOM     14  C9  LG1 d5015      19.877  24.589  55.475  0.00  0.00     0.055 A 
ATOM     15  C11 LG1 d5015      18.691  22.304  55.259  0.00  0.00     0.072 C 
ATOM     16  C8  LG1 d5015      20.581  25.336  54.561  0.00  0.00     0.035 A 
ATOM     17  C12 LG1 d5015      21.255  26.641  54.705  0.00  0.00     0.070 C 
ENDBRANCH   1  11
BRANCH   4  18
ATOM     18  C7  LG1 d5015      22.954  26.122  48.490  0.00  0.00     0.423 C 
ATOM     19  F4  LG1 d5015      22.142  26.879  47.696  0.00  0.00    -0.166 F 
ATOM     20  F3  LG1 d5015      23.324  25.061  47.715  0.00  0.00    -0.166 F 
ATOM     21  F5  LG1 d5015      24.088  26.860  48.664  0.00  0.00    -0.166 F 
ENDBRANCH   4  18
TORSDOF 2
ENDMDL
