REMARK INTER + INTRA:          -6.191
REMARK INTER:                  -6.027
REMARK INTRA:                  -0.164
REMARK UNBOUND:                -0.164
REMARK  1 active torsions:
REMARK  status: ('A' for Active; 'I' for Inactive)
REMARK    1  A    between atoms: C10_13  and  C11_14 
ROOT
ATOM      1  C1  LG1 d5015      20.328  24.402  52.478  0.00  0.00     0.018 C 
ATOM      2  C2  LG1 d5015      21.372  24.599  51.442  0.00  0.00     0.193 C 
ATOM      3  C3  LG1 d5015      20.906  25.310  50.232  0.00  0.00     0.049 A 
ATOM      4  C4  LG1 d5015      21.759  25.461  49.137  0.00  0.00     0.037 A 
ATOM      5  C5  LG1 d5015      21.333  26.186  48.024  0.00  0.00     0.012 A 
ATOM      6  C6  LG1 d5015      20.064  26.767  48.006  0.00  0.00     0.022 A 
ATOM      7  C7  LG1 d5015      19.214  26.619  49.103  0.00  0.00     0.039 A 
ATOM      8  C8  LG1 d5015      19.626  25.877  50.209  0.00  0.00     0.083 A 
ATOM      9  O1  LG1 d5015      18.749  25.786  51.257  0.00  0.00    -0.346 OA
ATOM     10  C9  LG1 d5015      18.915  24.593  52.031  0.00  0.00     0.218 C 
ATOM     11 BR1  LG1 d5015      22.472  26.368  46.524  0.00  0.00    -0.051 Br
ATOM     12  O2  LG1 d5015      22.526  24.213  51.558  0.00  0.00    -0.287 OA
ATOM     13  C10 LG1 d5015      20.692  24.067  53.722  0.00  0.00     0.025 C 
ENDROOT
BRANCH  13  14
ATOM     14  C11 LG1 d5015      19.781  23.851  54.805  0.00  0.00    -0.029 A 
ATOM     15  C14 LG1 d5015      19.429  24.840  55.695  0.00  0.00     0.061 A 
ATOM     16  S1  LG1 d5015      18.322  24.279  56.875  0.00  0.00    -0.113 SA
ATOM     17  C13 LG1 d5015      18.312  22.708  56.198  0.00  0.00     0.050 A 
ATOM     18  C12 LG1 d5015      19.133  22.615  55.096  0.00  0.00     0.019 A 
ENDBRANCH  13  14
TORSDOF 1
ENDMDL
