REMARK INTER + INTRA:          -6.068
REMARK INTER:                  -5.900
REMARK INTRA:                  -0.168
REMARK UNBOUND:                -0.154
REMARK  1 active torsions:
REMARK  status: ('A' for Active; 'I' for Inactive)
REMARK    1  A    between atoms: C10_13  and  C11_14 
ROOT
ATOM      1  C1  LG1 d5015      20.598  26.012  52.634  0.00  0.00     0.018 C 
ATOM      2  C2  LG1 d5015      20.651  26.987  51.516  0.00  0.00     0.193 C 
ATOM      3  C3  LG1 d5015      21.741  26.747  50.546  0.00  0.00     0.049 A 
ATOM      4  C4  LG1 d5015      21.969  27.656  49.511  0.00  0.00     0.037 A 
ATOM      5  C5  LG1 d5015      22.960  27.391  48.565  0.00  0.00     0.012 A 
ATOM      6  C6  LG1 d5015      23.714  26.220  48.645  0.00  0.00     0.022 A 
ATOM      7  C7  LG1 d5015      23.482  25.310  49.678  0.00  0.00     0.039 A 
ATOM      8  C8  LG1 d5015      22.508  25.580  50.639  0.00  0.00     0.083 A 
ATOM      9  O1  LG1 d5015      22.321  24.636  51.614  0.00  0.00    -0.346 OA
ATOM     10  C9  LG1 d5015      21.825  25.184  52.840  0.00  0.00     0.218 C 
ATOM     11 BR1  LG1 d5015      23.296  28.633  47.178  0.00  0.00    -0.051 Br
ATOM     12  O2  LG1 d5015      19.869  27.918  51.390  0.00  0.00    -0.287 OA
ATOM     13  C10 LG1 d5015      19.491  25.930  53.382  0.00  0.00     0.025 C 
ENDROOT
BRANCH  13  14
ATOM     14  C11 LG1 d5015      19.320  25.031  54.484  0.00  0.00    -0.029 A 
ATOM     15  C14 LG1 d5015      18.802  23.764  54.341  0.00  0.00     0.061 A 
ATOM     16  S1  LG1 d5015      18.723  22.930  55.834  0.00  0.00    -0.113 SA
ATOM     17  C13 LG1 d5015      19.382  24.265  56.678  0.00  0.00     0.050 A 
ATOM     18  C12 LG1 d5015      19.657  25.322  55.838  0.00  0.00     0.019 A 
ENDBRANCH  13  14
TORSDOF 1
ENDMDL
