REMARK INTER + INTRA:          -6.435
REMARK INTER:                  -6.268
REMARK INTRA:                  -0.168
REMARK UNBOUND:                -0.164
REMARK  1 active torsions:
REMARK  status: ('A' for Active; 'I' for Inactive)
REMARK    1  A    between atoms: C10_13  and  C11_14 
ROOT
ATOM      1  C1  LG1 d5015      21.809  26.232  51.394  0.00  0.00     0.018 C 
ATOM      2  C2  LG1 d5015      22.827  26.640  50.394  0.00  0.00     0.193 C 
ATOM      3  C3  LG1 d5015      22.375  27.686  49.452  0.00  0.00     0.049 A 
ATOM      4  C4  LG1 d5015      23.197  28.078  48.394  0.00  0.00     0.037 A 
ATOM      5  C5  LG1 d5015      22.788  29.108  47.546  0.00  0.00     0.012 A 
ATOM      6  C6  LG1 d5015      21.569  29.752  47.759  0.00  0.00     0.022 A 
ATOM      7  C7  LG1 d5015      20.750  29.363  48.819  0.00  0.00     0.039 A 
ATOM      8  C8  LG1 d5015      21.143  28.319  49.657  0.00  0.00     0.083 A 
ATOM      9  O1  LG1 d5015      20.299  28.000  50.688  0.00  0.00    -0.346 OA
ATOM     10  C9  LG1 d5015      20.401  26.631  51.096  0.00  0.00     0.218 C 
ATOM     11 BR1  LG1 d5015      23.883  29.623  46.091  0.00  0.00    -0.051 Br
ATOM     12  O2  LG1 d5015      23.950  26.162  50.335  0.00  0.00    -0.287 OA
ATOM     13  C10 LG1 d5015      22.191  25.544  52.477  0.00  0.00     0.025 C 
ENDROOT
BRANCH  13  14
ATOM     14  C11 LG1 d5015      21.305  25.097  53.509  0.00  0.00    -0.029 A 
ATOM     15  C14 LG1 d5015      21.019  25.849  54.626  0.00  0.00     0.061 A 
ATOM     16  S1  LG1 d5015      19.929  25.050  55.677  0.00  0.00    -0.113 SA
ATOM     17  C13 LG1 d5015      19.836  23.693  54.638  0.00  0.00     0.050 A 
ATOM     18  C12 LG1 d5015      20.618  23.848  53.516  0.00  0.00     0.019 A 
ENDBRANCH  13  14
TORSDOF 1
ENDMDL
