REMARK INTER + INTRA:          -6.420
REMARK INTER:                  -6.252
REMARK INTRA:                  -0.168
REMARK UNBOUND:                -0.154
REMARK  1 active torsions:
REMARK  status: ('A' for Active; 'I' for Inactive)
REMARK    1  A    between atoms: C10_13  and  C11_14 
ROOT
ATOM      1  C1  LG1 d5015      21.811  26.212  51.387  0.00  0.00     0.018 C 
ATOM      2  C2  LG1 d5015      22.826  26.623  50.385  0.00  0.00     0.193 C 
ATOM      3  C3  LG1 d5015      22.385  27.700  49.473  0.00  0.00     0.049 A 
ATOM      4  C4  LG1 d5015      23.203  28.099  48.414  0.00  0.00     0.037 A 
ATOM      5  C5  LG1 d5015      22.806  29.158  47.596  0.00  0.00     0.012 A 
ATOM      6  C6  LG1 d5015      21.603  29.821  47.837  0.00  0.00     0.022 A 
ATOM      7  C7  LG1 d5015      20.788  29.423  48.898  0.00  0.00     0.039 A 
ATOM      8  C8  LG1 d5015      21.169  28.352  49.707  0.00  0.00     0.083 A 
ATOM      9  O1  LG1 d5015      20.330  28.026  50.740  0.00  0.00    -0.346 OA
ATOM     10  C9  LG1 d5015      20.408  26.647  51.114  0.00  0.00     0.218 C 
ATOM     11 BR1  LG1 d5015      23.895  29.684  46.141  0.00  0.00    -0.051 Br
ATOM     12  O2  LG1 d5015      23.939  26.123  50.302  0.00  0.00    -0.287 OA
ATOM     13  C10 LG1 d5015      22.191  25.491  52.449  0.00  0.00     0.025 C 
ENDROOT
BRANCH  13  14
ATOM     14  C11 LG1 d5015      21.307  25.038  53.481  0.00  0.00    -0.029 A 
ATOM     15  C14 LG1 d5015      21.031  25.779  54.608  0.00  0.00     0.061 A 
ATOM     16  S1  LG1 d5015      19.941  24.976  55.654  0.00  0.00    -0.113 SA
ATOM     17  C13 LG1 d5015      19.835  23.630  54.601  0.00  0.00     0.050 A 
ATOM     18  C12 LG1 d5015      20.614  23.793  53.477  0.00  0.00     0.019 A 
ENDBRANCH  13  14
TORSDOF 1
ENDMDL
