MODEL 1
REMARK VINA RESULT:    -7.042      0.000      0.000
REMARK INTER + INTRA:          -8.387
REMARK INTER:                  -7.876
REMARK INTRA:                  -0.511
REMARK UNBOUND:                -0.521
REMARK  2 active torsions:
REMARK  status: ('A' for Active; 'I' for Inactive)
REMARK    1  A    between atoms: C1_1  and  N1_15 
REMARK    2  A    between atoms: C7_9  and  C4_4 
ROOT
ATOM      1  C1  LG1 d5015      22.747  27.271  49.856  0.00  0.00     0.141 A 
ATOM      2  C2  LG1 d5015      23.716  26.489  50.485  0.00  0.00     0.187 A 
ATOM      3  C3  LG1 d5015      23.577  26.156  51.832  0.00  0.00     0.175 A 
ATOM      4  C4  LG1 d5015      22.470  26.606  52.551  0.00  0.00     0.131 A 
ATOM      5  C5  LG1 d5015      21.502  27.389  51.924  0.00  0.00     0.175 A 
ATOM      6  C6  LG1 d5015      21.640  27.721  50.577  0.00  0.00     0.187 A 
ATOM      7  F1  LG1 d5015      20.701  28.475  49.986  0.00  0.00    -0.200 F 
ATOM      8  F2  LG1 d5015      20.434  27.826  52.608  0.00  0.00    -0.202 F 
ATOM      9  F6  LG1 d5015      24.514  25.402  52.426  0.00  0.00    -0.202 F 
ATOM     10  F7  LG1 d5015      24.785  26.050  49.805  0.00  0.00    -0.200 F 
ENDROOT
BRANCH   1  11
ATOM     11  N1  LG1 d5015      22.884  27.603  48.521  0.00  0.00    -0.232 N 
ATOM     12  N2  LG1 d5015      23.427  28.784  48.178  0.00  0.00    -0.172 NA
ATOM     13  C10 LG1 d5015      23.395  28.756  46.844  0.00  0.00     0.053 A 
ATOM     14  C9  LG1 d5015      22.836  27.567  46.337  0.00  0.00     0.055 A 
ATOM     15  C11 LG1 d5015      23.917  29.899  46.076  0.00  0.00     0.072 C 
ATOM     16  C8  LG1 d5015      22.514  26.837  47.455  0.00  0.00     0.035 A 
ATOM     17  C12 LG1 d5015      21.898  25.502  47.584  0.00  0.00     0.070 C 
ENDBRANCH   1  11
BRANCH   4  18
ATOM     18  C7  LG1 d5015      22.323  26.249  53.993  0.00  0.00     0.423 C 
ATOM     19  F4  LG1 d5015      21.612  27.166  54.713  0.00  0.00    -0.166 F 
ATOM     20  F3  LG1 d5015      23.514  26.127  54.650  0.00  0.00    -0.166 F 
ATOM     21  F5  LG1 d5015      21.680  25.060  54.176  0.00  0.00    -0.166 F 
ENDBRANCH   4  18
TORSDOF 2
ENDMDL
MODEL 2
REMARK VINA RESULT:    -7.028      0.031      2.326
REMARK INTER + INTRA:          -8.371
REMARK INTER:                  -7.858
REMARK INTRA:                  -0.513
REMARK UNBOUND:                -0.521
REMARK  2 active torsions:
REMARK  status: ('A' for Active; 'I' for Inactive)
REMARK    1  A    between atoms: C1_1  and  N1_15 
REMARK    2  A    between atoms: C7_9  and  C4_4 
ROOT
ATOM      1  C1  LG1 d5015      22.751  27.260  49.852  0.00  0.00     0.141 A 
ATOM      2  C2  LG1 d5015      21.638  27.704  50.566  0.00  0.00     0.187 A 
ATOM      3  C3  LG1 d5015      21.493  27.367  51.911  0.00  0.00     0.175 A 
ATOM      4  C4  LG1 d5015      22.460  26.586  52.543  0.00  0.00     0.131 A 
ATOM      5  C5  LG1 d5015      23.572  26.141  51.829  0.00  0.00     0.175 A 
ATOM      6  C6  LG1 d5015      23.718  26.478  50.484  0.00  0.00     0.187 A 
ATOM      7  F1  LG1 d5015      24.793  26.044  49.811  0.00  0.00    -0.200 F 
ATOM      8  F2  LG1 d5015      24.507  25.388  52.429  0.00  0.00    -0.202 F 
ATOM      9  F6  LG1 d5015      20.419  27.801  52.589  0.00  0.00    -0.202 F 
ATOM     10  F7  LG1 d5015      20.701  28.457  49.971  0.00  0.00    -0.200 F 
ENDROOT
BRANCH   1  11
ATOM     11  N1  LG1 d5015      22.896  27.593  48.517  0.00  0.00    -0.232 N 
ATOM     12  N2  LG1 d5015      23.452  28.769  48.179  0.00  0.00    -0.172 NA
ATOM     13  C10 LG1 d5015      23.425  28.745  46.845  0.00  0.00     0.053 A 
ATOM     14  C9  LG1 d5015      22.855  27.563  46.334  0.00  0.00     0.055 A 
ATOM     15  C11 LG1 d5015      23.961  29.885  46.081  0.00  0.00     0.072 C 
ATOM     16  C8  LG1 d5015      22.521  26.834  47.449  0.00  0.00     0.035 A 
ATOM     17  C12 LG1 d5015      21.891  25.505  47.572  0.00  0.00     0.070 C 
ENDBRANCH   1  11
BRANCH   4  18
ATOM     18  C7  LG1 d5015      22.303  26.225  53.982  0.00  0.00     0.423 C 
ATOM     19  F4  LG1 d5015      21.554  27.119  54.692  0.00  0.00    -0.166 F 
ATOM     20  F3  LG1 d5015      23.488  26.138  54.656  0.00  0.00    -0.166 F 
ATOM     21  F5  LG1 d5015      21.694  25.016  54.157  0.00  0.00    -0.166 F 
ENDBRANCH   4  18
TORSDOF 2
ENDMDL
MODEL 3
REMARK VINA RESULT:    -6.879      3.165      6.357
REMARK INTER + INTRA:          -8.204
REMARK INTER:                  -7.650
REMARK INTRA:                  -0.554
REMARK UNBOUND:                -0.521
REMARK  2 active torsions:
REMARK  status: ('A' for Active; 'I' for Inactive)
REMARK    1  A    between atoms: C1_1  and  N1_15 
REMARK    2  A    between atoms: C7_9  and  C4_4 
ROOT
ATOM      1  C1  LG1 d5015      21.151  24.996  52.244  0.00  0.00     0.141 A 
ATOM      2  C2  LG1 d5015      22.426  24.536  51.911  0.00  0.00     0.187 A 
ATOM      3  C3  LG1 d5015      23.013  24.920  50.706  0.00  0.00     0.175 A 
ATOM      4  C4  LG1 d5015      22.327  25.763  49.832  0.00  0.00     0.131 A 
ATOM      5  C5  LG1 d5015      21.052  26.223  50.164  0.00  0.00     0.175 A 
ATOM      6  C6  LG1 d5015      20.465  25.839  51.369  0.00  0.00     0.187 A 
ATOM      7  F1  LG1 d5015      19.240  26.289  51.675  0.00  0.00    -0.200 F 
ATOM      8  F2  LG1 d5015      20.385  27.034  49.330  0.00  0.00    -0.202 F 
ATOM      9  F6  LG1 d5015      24.239  24.473  50.397  0.00  0.00    -0.202 F 
ATOM     10  F7  LG1 d5015      23.097  23.725  52.742  0.00  0.00    -0.200 F 
ENDROOT
BRANCH   1  11
ATOM     11  N1  LG1 d5015      20.568  24.616  53.438  0.00  0.00    -0.232 N 
ATOM     12  N2  LG1 d5015      19.885  23.460  53.509  0.00  0.00    -0.172 NA
ATOM     13  C10 LG1 d5015      19.475  23.428  54.779  0.00  0.00     0.053 A 
ATOM     14  C9  LG1 d5015      19.892  24.554  55.514  0.00  0.00     0.055 A 
ATOM     15  C11 LG1 d5015      18.677  22.288  55.262  0.00  0.00     0.072 C 
ATOM     16  C8  LG1 d5015      20.602  25.309  54.612  0.00  0.00     0.035 A 
ATOM     17  C12 LG1 d5015      21.293  26.602  54.777  0.00  0.00     0.070 C 
ENDBRANCH   1  11
BRANCH   4  18
ATOM     18  C7  LG1 d5015      22.956  26.173  48.543  0.00  0.00     0.423 C 
ATOM     19  F4  LG1 d5015      22.151  26.957  47.767  0.00  0.00    -0.166 F 
ATOM     20  F3  LG1 d5015      23.304  25.120  47.746  0.00  0.00    -0.166 F 
ATOM     21  F5  LG1 d5015      24.103  26.890  48.723  0.00  0.00    -0.166 F 
ENDBRANCH   4  18
TORSDOF 2
ENDMDL
MODEL 4
REMARK VINA RESULT:    -6.857      3.172      6.752
REMARK INTER + INTRA:          -8.180
REMARK INTER:                  -7.624
REMARK INTRA:                  -0.556
REMARK UNBOUND:                -0.521
REMARK  2 active torsions:
REMARK  status: ('A' for Active; 'I' for Inactive)
REMARK    1  A    between atoms: C1_1  and  N1_15 
REMARK    2  A    between atoms: C7_9  and  C4_4 
ROOT
ATOM      1  C1  LG1 d5015      21.144  24.987  52.201  0.00  0.00     0.141 A 
ATOM      2  C2  LG1 d5015      20.446  25.795  51.303  0.00  0.00     0.187 A 
ATOM      3  C3  LG1 d5015      21.036  26.164  50.094  0.00  0.00     0.175 A 
ATOM      4  C4  LG1 d5015      22.323  25.726  49.783  0.00  0.00     0.131 A 
ATOM      5  C5  LG1 d5015      23.021  24.919  50.682  0.00  0.00     0.175 A 
ATOM      6  C6  LG1 d5015      22.431  24.550  51.890  0.00  0.00     0.187 A 
ATOM      7  F1  LG1 d5015      23.114  23.773  52.744  0.00  0.00    -0.200 F 
ATOM      8  F2  LG1 d5015      24.260  24.494  50.391  0.00  0.00    -0.202 F 
ATOM      9  F6  LG1 d5015      20.356  26.940  49.237  0.00  0.00    -0.202 F 
ATOM     10  F7  LG1 d5015      19.208  26.223  51.588  0.00  0.00    -0.200 F 
ENDROOT
BRANCH   1  11
ATOM     11  N1  LG1 d5015      20.560  24.621  53.400  0.00  0.00    -0.232 N 
ATOM     12  N2  LG1 d5015      19.891  23.459  53.490  0.00  0.00    -0.172 NA
ATOM     13  C10 LG1 d5015      19.477  23.445  54.759  0.00  0.00     0.053 A 
ATOM     14  C9  LG1 d5015      19.877  24.589  55.475  0.00  0.00     0.055 A 
ATOM     15  C11 LG1 d5015      18.691  22.304  55.259  0.00  0.00     0.072 C 
ATOM     16  C8  LG1 d5015      20.581  25.336  54.561  0.00  0.00     0.035 A 
ATOM     17  C12 LG1 d5015      21.255  26.641  54.705  0.00  0.00     0.070 C 
ENDBRANCH   1  11
BRANCH   4  18
ATOM     18  C7  LG1 d5015      22.954  26.122  48.490  0.00  0.00     0.423 C 
ATOM     19  F4  LG1 d5015      22.142  26.879  47.696  0.00  0.00    -0.166 F 
ATOM     20  F3  LG1 d5015      23.324  25.061  47.715  0.00  0.00    -0.166 F 
ATOM     21  F5  LG1 d5015      24.088  26.860  48.664  0.00  0.00    -0.166 F 
ENDBRANCH   4  18
TORSDOF 2
ENDMDL
MODEL 5
REMARK VINA RESULT:    -6.811      2.012      3.201
REMARK INTER + INTRA:          -8.128
REMARK INTER:                  -7.607
REMARK INTRA:                  -0.521
REMARK UNBOUND:                -0.521
REMARK  2 active torsions:
REMARK  status: ('A' for Active; 'I' for Inactive)
REMARK    1  A    between atoms: C1_1  and  N1_15 
REMARK    2  A    between atoms: C7_9  and  C4_4 
ROOT
ATOM      1  C1  LG1 d5015      22.154  27.733  49.688  0.00  0.00     0.141 A 
ATOM      2  C2  LG1 d5015      22.081  27.776  51.080  0.00  0.00     0.187 A 
ATOM      3  C3  LG1 d5015      22.747  26.817  51.843  0.00  0.00     0.175 A 
ATOM      4  C4  LG1 d5015      23.485  25.815  51.214  0.00  0.00     0.131 A 
ATOM      5  C5  LG1 d5015      23.557  25.771  49.823  0.00  0.00     0.175 A 
ATOM      6  C6  LG1 d5015      22.892  26.730  49.060  0.00  0.00     0.187 A 
ATOM      7  F1  LG1 d5015      22.971  26.676  47.722  0.00  0.00    -0.200 F 
ATOM      8  F2  LG1 d5015      24.265  24.810  49.209  0.00  0.00    -0.202 F 
ATOM      9  F6  LG1 d5015      22.671  26.868  53.182  0.00  0.00    -0.202 F 
ATOM     10  F7  LG1 d5015      21.375  28.734  51.698  0.00  0.00    -0.200 F 
ENDROOT
BRANCH   1  11
ATOM     11  N1  LG1 d5015      21.494  28.683  48.930  0.00  0.00    -0.232 N 
ATOM     12  N2  LG1 d5015      22.139  29.799  48.549  0.00  0.00    -0.172 NA
ATOM     13  C10 LG1 d5015      21.211  30.463  47.855  0.00  0.00     0.053 A 
ATOM     14  C9  LG1 d5015      19.983  29.777  47.793  0.00  0.00     0.055 A 
ATOM     15  C11 LG1 d5015      21.540  31.768  47.256  0.00  0.00     0.072 C 
ATOM     16  C8  LG1 d5015      20.200  28.621  48.504  0.00  0.00     0.035 A 
ATOM     17  C12 LG1 d5015      19.297  27.492  48.797  0.00  0.00     0.070 C 
ENDBRANCH   1  11
BRANCH   4  18
ATOM     18  C7  LG1 d5015      24.196  24.788  52.031  0.00  0.00     0.423 C 
ATOM     19  F4  LG1 d5015      24.551  25.229  53.274  0.00  0.00    -0.166 F 
ATOM     20  F3  LG1 d5015      25.358  24.347  51.465  0.00  0.00    -0.166 F 
ATOM     21  F5  LG1 d5015      23.443  23.670  52.240  0.00  0.00    -0.166 F 
ENDBRANCH   4  18
TORSDOF 2
ENDMDL
