REMARK INTER + INTRA:          -5.777
REMARK INTER:                  -5.576
REMARK INTRA:                  -0.201
REMARK UNBOUND:                -0.207
REMARK  1 active torsions:
REMARK  status: ('A' for Active; 'I' for Inactive)
REMARK    1  A    between atoms: C1_1  and  N1_10 
ROOT
ATOM      1  C1  LG1 d5015      21.827  26.676  48.920  0.00  0.00     0.056 A 
ATOM      2  C2  LG1 d5015      23.181  27.008  48.934  0.00  0.00    -0.033 A 
ATOM      3  C3  LG1 d5015      24.039  26.396  49.848  0.00  0.00     0.028 A 
ATOM      4  C4  LG1 d5015      23.544  25.452  50.747  0.00  0.00     0.012 A 
ATOM      5  C5  LG1 d5015      22.188  25.120  50.733  0.00  0.00     0.028 A 
ATOM      6  C6  LG1 d5015      21.331  25.732  49.820  0.00  0.00    -0.033 A 
ATOM      7  C7  LG1 d5015      19.884  25.356  49.828  0.00  0.00     0.050 C 
ATOM      8 BR1  LG1 d5015      24.707  24.624  51.986  0.00  0.00    -0.051 Br
ATOM      9  C8  LG1 d5015      23.742  28.015  47.983  0.00  0.00     0.050 C 
ENDROOT
BRANCH   1  10
ATOM     10  N1  LG1 d5015      20.944  27.304  47.979  0.00  0.00    -0.265 N 
ATOM     11  C11 LG1 d5015      20.681  26.809  46.701  0.00  0.00     0.148 C 
ATOM     12  S2  LG1 d5015      21.074  25.335  46.008  0.00  0.00    -0.052 SA
ATOM     13  S1  LG1 d5015      19.696  27.969  45.816  0.00  0.00    -0.090 SA
ATOM     14  C10 LG1 d5015      19.378  28.986  47.258  0.00  0.00     0.185 C 
ATOM     15  C9  LG1 d5015      20.306  28.501  48.335  0.00  0.00     0.239 C 
ATOM     16  O1  LG1 d5015      20.449  29.143  49.372  0.00  0.00    -0.272 OA
ENDBRANCH   1  10
TORSDOF 1
ENDMDL
