REMARK INTER + INTRA:          -6.634
REMARK INTER:                  -6.469
REMARK INTRA:                  -0.164
REMARK UNBOUND:                -0.154
REMARK  1 active torsions:
REMARK  status: ('A' for Active; 'I' for Inactive)
REMARK    1  A    between atoms: C10_13  and  C11_14 
ROOT
ATOM      1  C1  LG1 d5015      21.726  25.531  50.736  0.00  0.00     0.018 C 
ATOM      2  C2  LG1 d5015      21.705  24.593  51.886  0.00  0.00     0.193 C 
ATOM      3  C3  LG1 d5015      20.396  24.488  52.565  0.00  0.00     0.049 A 
ATOM      4  C4  LG1 d5015      20.271  23.726  53.729  0.00  0.00     0.037 A 
ATOM      5  C5  LG1 d5015      19.020  23.583  54.330  0.00  0.00     0.012 A 
ATOM      6  C6  LG1 d5015      17.896  24.189  53.768  0.00  0.00     0.022 A 
ATOM      7  C7  LG1 d5015      18.021  24.948  52.603  0.00  0.00     0.039 A 
ATOM      8  C8  LG1 d5015      19.273  25.112  52.010  0.00  0.00     0.083 A 
ATOM      9  O1  LG1 d5015      19.322  25.855  50.860  0.00  0.00    -0.346 OA
ATOM     10  C9  LG1 d5015      20.586  26.494  50.654  0.00  0.00     0.218 C 
ATOM     11 BR1  LG1 d5015      18.848  22.577  55.923  0.00  0.00    -0.051 Br
ATOM     12  O2  LG1 d5015      22.677  23.952  52.256  0.00  0.00    -0.287 OA
ATOM     13  C10 LG1 d5015      22.737  25.474  49.860  0.00  0.00     0.025 C 
ENDROOT
BRANCH  13  14
ATOM     14  C11 LG1 d5015      22.868  26.323  48.714  0.00  0.00    -0.029 A 
ATOM     15  C14 LG1 d5015      22.312  26.020  47.492  0.00  0.00     0.061 A 
ATOM     16  S1  LG1 d5015      22.638  27.226  46.322  0.00  0.00    -0.113 SA
ATOM     17  C13 LG1 d5015      23.526  28.158  47.448  0.00  0.00     0.050 A 
ATOM     18  C12 LG1 d5015      23.572  27.562  48.690  0.00  0.00     0.019 A 
ENDBRANCH  13  14
TORSDOF 1
ENDMDL
