REMARK INTER + INTRA:          -5.833
REMARK INTER:                  -5.629
REMARK INTRA:                  -0.204
REMARK UNBOUND:                -0.192
REMARK  1 active torsions:
REMARK  status: ('A' for Active; 'I' for Inactive)
REMARK    1  A    between atoms: C1_1  and  N1_10 
ROOT
ATOM      1  C1  LG1 d5015      22.055  26.336  50.443  0.00  0.00     0.056 A 
ATOM      2  C2  LG1 d5015      23.276  25.816  50.014  0.00  0.00    -0.033 A 
ATOM      3  C3  LG1 d5015      23.406  25.323  48.716  0.00  0.00     0.028 A 
ATOM      4  C4  LG1 d5015      22.317  25.350  47.846  0.00  0.00     0.012 A 
ATOM      5  C5  LG1 d5015      21.094  25.870  48.276  0.00  0.00     0.028 A 
ATOM      6  C6  LG1 d5015      20.965  26.362  49.574  0.00  0.00    -0.033 A 
ATOM      7  C7  LG1 d5015      19.644  26.913  50.005  0.00  0.00     0.050 C 
ATOM      8 BR1  LG1 d5015      22.493  24.679  46.088  0.00  0.00    -0.051 Br
ATOM      9  C8  LG1 d5015      24.463  25.775  50.922  0.00  0.00     0.050 C 
ENDROOT
BRANCH   1  10
ATOM     10  N1  LG1 d5015      21.921  26.845  51.779  0.00  0.00    -0.265 N 
ATOM     11  C11 LG1 d5015      21.521  26.077  52.872  0.00  0.00     0.148 C 
ATOM     12  S2  LG1 d5015      21.327  24.420  53.020  0.00  0.00    -0.052 SA
ATOM     13  S1  LG1 d5015      21.311  27.120  54.273  0.00  0.00    -0.090 SA
ATOM     14  C10 LG1 d5015      22.053  28.545  53.478  0.00  0.00     0.185 C 
ATOM     15  C9  LG1 d5015      22.187  28.200  52.023  0.00  0.00     0.239 C 
ATOM     16  O1  LG1 d5015      22.481  29.063  51.200  0.00  0.00    -0.272 OA
ENDBRANCH   1  10
TORSDOF 1
ENDMDL
