REMARK  3 active torsions:
REMARK  status: ('A' for Active; 'I' for Inactive)
REMARK    1  A    between atoms: C4_4  and  C7_7 
REMARK    2  A    between atoms: C14_14  and  C16_16 
REMARK    3  A    between atoms: C16_16  and  C17_17 
ROOT
ATOM      1  C7  <0> d  11       0.002  -0.004   0.002  0.00  0.00     0.090 A 
ATOM      2  C8  <0> d  11      -1.182  -0.674   0.015  0.00  0.00     0.093 A 
ATOM      3  C9  <0> d  11      -1.182  -2.089   0.003  0.00  0.00     0.187 A 
ATOM      4  C10 <0> d  11       0.129  -2.767  -0.014  0.00  0.00     0.048 A 
ATOM      5  C11 <0> d  11       0.226  -4.157  -0.023  0.00  0.00     0.018 A 
ATOM      6  C12 <0> d  11       1.469  -4.752  -0.039  0.00  0.00     0.002 A 
ATOM      7  C13 <0> d  11       2.617  -3.974  -0.047  0.00  0.00     0.010 A 
ATOM      8  C14 <0> d  11       2.534  -2.598  -0.037  0.00  0.00    -0.013 A 
ATOM      9  C15 <0> d  11       1.290  -1.978  -0.021  0.00  0.00     0.097 A 
ATOM     10  O1  <0> d  11      -2.224  -2.723   0.009  0.00  0.00    -0.287 OA
ATOM     11  O2  <0> d  11       1.187  -0.633  -0.013  0.00  0.00    -0.308 OA
ENDROOT
BRANCH   1  12
ATOM     12  C4  <0> d  11      -0.018   1.472   0.010  0.00  0.00    -0.002 A 
ATOM     13  C3  <0> d  11       1.180   2.190   0.001  0.00  0.00     0.014 A 
ATOM     14  C2  <0> d  11       1.154   3.569   0.008  0.00  0.00     0.001 A 
ATOM     15  C1  <0> d  11      -0.056   4.242   0.025  0.00  0.00     0.000 A 
ATOM     16  C6  <0> d  11      -1.246   3.537   0.034  0.00  0.00     0.001 A 
ATOM     17  C5  <0> d  11      -1.235   2.157   0.021  0.00  0.00     0.014 A 
ENDBRANCH   1  12
BRANCH   8  18
ATOM     18  C16 <0> d  11       3.791  -1.766  -0.044  0.00  0.00     0.154 C 
BRANCH  18  19
ATOM     19  C17 <0> d  11       3.831  -0.905   1.192  0.00  0.00     0.177 C 
ATOM     20  O3  <0> d  11       3.302  -1.284   2.210  0.00  0.00    -0.648 OA
ATOM     21  O4  <0> d  11       4.454   0.284   1.161  0.00  0.00    -0.648 OA
ENDBRANCH  18  19
ENDBRANCH   8  18
TORSDOF 3
