REMARK  4 active torsions:
REMARK  status: ('A' for Active; 'I' for Inactive)
REMARK    1  A    between atoms: C4_4  and  N1_25 
REMARK    2  A    between atoms: C8_8  and  C16_16 
REMARK    3  A    between atoms: C9_9  and  C10_10 
REMARK    4  A    between atoms: C16_16  and  C17_17 
ROOT
ATOM      1  C7  <0> d  11       2.565  -0.301  -2.238  0.00  0.00     0.271 A 
ATOM      2  C8  <0> d  11       2.870   0.835  -1.461  0.00  0.00     0.044 A 
ATOM      3  C9  <0> d  11       3.675   1.648  -2.202  0.00  0.00     0.070 A 
ATOM      4  H1  <0> d  11       4.424   1.395  -4.145  0.00  0.00     0.187 HD
ATOM      5  N1  <0> d  11       3.185  -0.170  -3.427  0.00  0.00    -0.252 N 
ATOM      6  N2  <0> d  11       3.887   1.042  -3.419  0.00  0.00    -0.294 N 
ATOM      7  O1  <0> d  11       1.863  -1.236  -1.894  0.00  0.00    -0.266 OA
ENDROOT
BRANCH   5   8
ATOM      8  C4  <0> d  11       3.135  -1.129  -4.534  0.00  0.00     0.115 C 
ATOM      9  C3  <0> d  11       4.548  -1.632  -4.840  0.00  0.00     0.055 C 
ATOM     10  C2  <0> d  11       4.482  -2.678  -5.955  0.00  0.00     0.236 C 
ATOM     11  N3  <0> d  11       3.638  -3.805  -5.507  0.00  0.00    -0.075 N 
ATOM     12  C1  <0> d  11       3.650  -4.880  -6.521  0.00  0.00     0.269 C 
ATOM     13  C6  <0> d  11       2.252  -3.342  -5.279  0.00  0.00     0.236 C 
ATOM     14  H26 <0> d  11       4.015  -4.174  -4.626  0.00  0.00     0.279 HD
ATOM     15  C5  <0> d  11       2.252  -2.317  -4.143  0.00  0.00     0.055 C 
ENDBRANCH   5   8
BRANCH   3  16
ATOM     16  C10 <0> d  11       4.226   2.950  -1.772  0.00  0.00    -0.007 A 
ATOM     17  C15 <0> d  11       3.933   3.450  -0.502  0.00  0.00     0.014 A 
ATOM     18  C14 <0> d  11       4.451   4.666  -0.107  0.00  0.00     0.001 A 
ATOM     19  C13 <0> d  11       5.258   5.390  -0.967  0.00  0.00     0.000 A 
ATOM     20  C12 <0> d  11       5.553   4.900  -2.227  0.00  0.00     0.001 A 
ATOM     21  C11 <0> d  11       5.046   3.682  -2.632  0.00  0.00     0.014 A 
ENDBRANCH   3  16
BRANCH   2  22
ATOM     22  C16 <0> d  11       2.387   1.106  -0.059  0.00  0.00     0.085 C 
BRANCH  22  23
ATOM     23  C17 <0> d  11       1.088   1.868  -0.115  0.00  0.00    -0.054 A 
ATOM     24  C22 <0> d  11       0.230   1.695  -1.184  0.00  0.00     0.007 A 
ATOM     25  C21 <0> d  11      -0.962   2.394  -1.235  0.00  0.00     0.001 A 
ATOM     26  C20 <0> d  11      -1.295   3.266  -0.215  0.00  0.00     0.000 A 
ATOM     27  C19 <0> d  11      -0.439   3.436   0.856  0.00  0.00     0.001 A 
ATOM     28  C18 <0> d  11       0.755   2.741   0.904  0.00  0.00     0.007 A 
ENDBRANCH  22  23
ENDBRANCH   2  22
TORSDOF 4
