REMARK  1 active torsions:
REMARK  status: ('A' for Active; 'I' for Inactive)
REMARK    1  A    between atoms: C1_1  and  N1_10 
ROOT
ATOM      1  C1  LG1 d5015      23.164  10.462  59.155  0.00  0.00     0.056 A 
ATOM      2  C2  LG1 d5015      21.987  11.168  58.908  0.00  0.00    -0.033 A 
ATOM      3  C3  LG1 d5015      21.750  11.707  57.643  0.00  0.00     0.028 A 
ATOM      4  C4  LG1 d5015      22.689  11.540  56.626  0.00  0.00     0.012 A 
ATOM      5  C5  LG1 d5015      23.868  10.834  56.874  0.00  0.00     0.028 A 
ATOM      6  C6  LG1 d5015      24.104  10.296  58.138  0.00  0.00    -0.033 A 
ATOM      7  C7  LG1 d5015      25.375   9.545  58.373  0.00  0.00     0.050 C 
ATOM      8 BR1  LG1 d5015      22.368  12.272  54.913  0.00  0.00    -0.051 Br
ATOM      9  C8  LG1 d5015      20.961  11.362  59.977  0.00  0.00     0.050 C 
ENDROOT
BRANCH   1  10
ATOM     10  N1  LG1 d5015      23.408   9.906  60.456  0.00  0.00    -0.265 N 
ATOM     11  C11 LG1 d5015      23.012   8.627  60.847  0.00  0.00     0.148 C 
ATOM     12  S2  LG1 d5015      22.406   7.355  59.940  0.00  0.00    -0.052 SA
ATOM     13  S1  LG1 d5015      23.341   8.412  62.562  0.00  0.00    -0.090 SA
ATOM     14  C10 LG1 d5015      24.290   9.927  62.696  0.00  0.00     0.185 C 
ATOM     15  C9  LG1 d5015      24.069  10.683  61.418  0.00  0.00     0.239 C 
ATOM     16  O1  LG1 d5015      24.437  11.850  61.310  0.00  0.00    -0.272 OA
ENDBRANCH   1  10
TORSDOF 1
