REMARK INTER + INTRA:         -11.896
REMARK INTER:                 -10.451
REMARK INTRA:                  -1.445
REMARK UNBOUND:                -1.249
REMARK  4 active torsions:
REMARK  status: ('A' for Active; 'I' for Inactive)
REMARK    1  A    between atoms: C4_4  and  N1_25 
REMARK    2  A    between atoms: C8_8  and  C16_16 
REMARK    3  A    between atoms: C9_9  and  C10_10 
REMARK    4  A    between atoms: C16_16  and  C17_17 
ROOT
ATOM      1  C7  <0> d  11     -14.314   0.114 -17.383  0.00  0.00     0.271 A 
ATOM      2  C8  <0> d  11     -14.017   1.413 -16.920  0.00  0.00     0.044 A 
ATOM      3  C9  <0> d  11     -13.515   2.128 -17.966  0.00  0.00     0.070 A 
ATOM      4  H1  <0> d  11     -13.169   1.549 -19.952  0.00  0.00     0.187 HD
ATOM      5  N1  <0> d  11     -13.988   0.054 -18.689  0.00  0.00    -0.252 N 
ATOM      6  N2  <0> d  11     -13.482   1.304 -19.068  0.00  0.00    -0.294 N 
ATOM      7  O1  <0> d  11     -14.784  -0.792 -16.718  0.00  0.00    -0.266 OA
ENDROOT
BRANCH   5   8
ATOM      8  C4  <0> d  11     -14.134  -1.116 -19.559  0.00  0.00     0.115 C 
ATOM      9  C3  <0> d  11     -14.628  -0.668 -20.938  0.00  0.00     0.055 C 
ATOM     10  C2  <0> d  11     -14.720  -1.885 -21.861  0.00  0.00     0.236 C 
ATOM     11  N3  <0> d  11     -13.379  -2.496 -21.986  0.00  0.00    -0.075 N 
ATOM     12  C1  <0> d  11     -13.419  -3.605 -22.961  0.00  0.00     0.269 C 
ATOM     13  C6  <0> d  11     -12.925  -2.997 -20.671  0.00  0.00     0.236 C 
ATOM     14  H26 <0> d  11     -12.718  -1.783 -22.317  0.00  0.00     0.279 HD
ATOM     15  C5  <0> d  11     -12.779  -1.812 -19.712  0.00  0.00     0.055 C 
ENDBRANCH   5   8
BRANCH   3  16
ATOM     16  C10 <0> d  11     -13.078   3.539 -17.923  0.00  0.00    -0.007 A 
ATOM     17  C15 <0> d  11     -13.791   4.515 -18.622  0.00  0.00     0.014 A 
ATOM     18  C14 <0> d  11     -13.378   5.830 -18.577  0.00  0.00     0.001 A 
ATOM     19  C13 <0> d  11     -12.260   6.183 -17.842  0.00  0.00     0.000 A 
ATOM     20  C12 <0> d  11     -11.549   5.221 -17.146  0.00  0.00     0.001 A 
ATOM     21  C11 <0> d  11     -11.955   3.902 -17.178  0.00  0.00     0.014 A 
ENDBRANCH   3  16
BRANCH   2  22
ATOM     22  C16 <0> d  11     -14.224   1.922 -15.516  0.00  0.00     0.085 C 
BRANCH  22  23
ATOM     23  C17 <0> d  11     -15.537   2.657 -15.438  0.00  0.00    -0.054 A 
ATOM     24  C22 <0> d  11     -16.704   2.034 -15.840  0.00  0.00     0.007 A 
ATOM     25  C21 <0> d  11     -17.908   2.709 -15.767  0.00  0.00     0.001 A 
ATOM     26  C20 <0> d  11     -17.946   4.005 -15.292  0.00  0.00     0.000 A 
ATOM     27  C19 <0> d  11     -16.780   4.627 -14.885  0.00  0.00     0.001 A 
ATOM     28  C18 <0> d  11     -15.575   3.955 -14.962  0.00  0.00     0.007 A 
ENDBRANCH  22  23
ENDBRANCH   2  22
TORSDOF 4
ENDMDL
