REMARK INTER + INTRA:          -9.771
REMARK INTER:                  -9.126
REMARK INTRA:                  -0.645
REMARK UNBOUND:                -0.595
REMARK  3 active torsions:
REMARK  status: ('A' for Active; 'I' for Inactive)
REMARK    1  A    between atoms: C4_4  and  C7_7 
REMARK    2  A    between atoms: C14_14  and  C16_16 
REMARK    3  A    between atoms: C16_16  and  C17_17 
ROOT
ATOM      1  C7  <0> d  11     -14.231   2.355 -16.902  0.00  0.00     0.090 A 
ATOM      2  C8  <0> d  11     -13.062   2.904 -16.476  0.00  0.00     0.093 A 
ATOM      3  C9  <0> d  11     -11.836   2.410 -16.981  0.00  0.00     0.187 A 
ATOM      4  C10 <0> d  11     -11.901   1.312 -17.966  0.00  0.00     0.048 A 
ATOM      5  C11 <0> d  11     -10.745   0.765 -18.519  0.00  0.00     0.018 A 
ATOM      6  C12 <0> d  11     -10.849  -0.259 -19.436  0.00  0.00     0.002 A 
ATOM      7  C13 <0> d  11     -12.094  -0.744 -19.805  0.00  0.00     0.010 A 
ATOM      8  C14 <0> d  11     -13.245  -0.210 -19.265  0.00  0.00    -0.013 A 
ATOM      9  C15 <0> d  11     -13.163   0.823 -18.339  0.00  0.00     0.097 A 
ATOM     10  O1  <0> d  11     -10.767   2.874 -16.619  0.00  0.00    -0.287 OA
ATOM     11  O2  <0> d  11     -14.277   1.358 -17.798  0.00  0.00    -0.308 OA
ENDROOT
BRANCH   1  12
ATOM     12  C4  <0> d  11     -15.500   2.881 -16.360  0.00  0.00    -0.002 A 
ATOM     13  C3  <0> d  11     -15.486   3.842 -15.347  0.00  0.00     0.014 A 
ATOM     14  C2  <0> d  11     -16.676   4.329 -14.847  0.00  0.00     0.001 A 
ATOM     15  C1  <0> d  11     -17.881   3.868 -15.345  0.00  0.00     0.000 A 
ATOM     16  C6  <0> d  11     -17.903   2.915 -16.348  0.00  0.00     0.001 A 
ATOM     17  C5  <0> d  11     -16.721   2.424 -16.862  0.00  0.00     0.014 A 
ENDBRANCH   1  12
BRANCH   8  18
ATOM     18  C16 <0> d  11     -14.592  -0.747 -19.678  0.00  0.00     0.154 C 
BRANCH  18  19
ATOM     19  C17 <0> d  11     -15.019  -0.093 -20.967  0.00  0.00     0.177 C 
ATOM     20  O3  <0> d  11     -15.650   0.936 -20.941  0.00  0.00    -0.648 OA
ATOM     21  O4  <0> d  11     -14.698  -0.654 -22.142  0.00  0.00    -0.648 OA
ENDBRANCH  18  19
ENDBRANCH   8  18
TORSDOF 3
ENDMDL
