MODEL 1
REMARK VINA RESULT:    -5.288      0.000      0.000
REMARK INTER + INTRA:          -6.169
REMARK INTER:                  -6.063
REMARK INTRA:                  -0.106
REMARK UNBOUND:                -0.108
REMARK  3 active torsions:
REMARK  status: ('A' for Active; 'I' for Inactive)
REMARK    1  A    between atoms: C3_3  and  S1_15 
REMARK    2  A    between atoms: C6_6  and  C7_7 
REMARK    3  A    between atoms: S1_15  and  N1_10 
ROOT
ATOM      1  C1  <0> d  11     -17.351   4.289 -14.719  0.00  0.00     0.020 A 
ATOM      2  C2  <0> d  11     -16.068   4.087 -15.184  0.00  0.00     0.026 A 
ATOM      3  C3  <0> d  11     -15.815   3.103 -16.122  0.00  0.00     0.079 A 
ATOM      4  C4  <0> d  11     -16.846   2.310 -16.598  0.00  0.00     0.026 A 
ATOM      5  C5  <0> d  11     -18.133   2.497 -16.138  0.00  0.00     0.020 A 
ATOM      6  C6  <0> d  11     -18.394   3.489 -15.190  0.00  0.00     0.040 A 
ENDROOT
BRANCH   3   7
ATOM      7  S1  <0> d  11     -14.174   2.857 -16.715  0.00  0.00     0.256 S 
ATOM      8  O2  <0> d  11     -14.281   2.046 -17.877  0.00  0.00    -0.201 OA
ATOM      9  O3  <0> d  11     -13.552   4.135 -16.732  0.00  0.00    -0.201 OA
BRANCH   7  10
ATOM     10  N1  <0> d  11     -13.374   1.956 -15.581  0.00  0.00    -0.324 N 
ATOM     11  H5  <0> d  11     -13.837   1.243 -15.113  0.00  0.00     0.169 HD
ATOM     12  H6  <0> d  11     -12.442   2.140 -15.384  0.00  0.00     0.169 HD
ENDBRANCH   7  10
ENDBRANCH   3   7
BRANCH   6  13
ATOM     13  C7  <0> d  11     -19.770   3.695 -14.692  0.00  0.00     0.209 C 
ATOM     14  O1  <0> d  11     -19.999   3.643 -13.501  0.00  0.00    -0.644 OA
ATOM     15  O4  <0> d  11     -20.769   3.943 -15.560  0.00  0.00    -0.644 OA
ENDBRANCH   6  13
TORSDOF 3
ENDMDL
MODEL 2
REMARK VINA RESULT:    -5.232      1.179      2.018
REMARK INTER + INTRA:          -6.105
REMARK INTER:                  -5.998
REMARK INTRA:                  -0.107
REMARK UNBOUND:                -0.108
REMARK  3 active torsions:
REMARK  status: ('A' for Active; 'I' for Inactive)
REMARK    1  A    between atoms: C3_3  and  S1_15 
REMARK    2  A    between atoms: C6_6  and  C7_7 
REMARK    3  A    between atoms: S1_15  and  N1_10 
ROOT
ATOM      1  C1  <0> d  11     -18.400   2.680 -16.530  0.00  0.00     0.020 A 
ATOM      2  C2  <0> d  11     -17.174   2.543 -17.149  0.00  0.00     0.026 A 
ATOM      3  C3  <0> d  11     -16.060   3.174 -16.628  0.00  0.00     0.079 A 
ATOM      4  C4  <0> d  11     -16.165   3.950 -15.487  0.00  0.00     0.026 A 
ATOM      5  C5  <0> d  11     -17.385   4.100 -14.861  0.00  0.00     0.020 A 
ATOM      6  C6  <0> d  11     -18.515   3.466 -15.382  0.00  0.00     0.040 A 
ENDROOT
BRANCH   3   7
ATOM      7  S1  <0> d  11     -14.497   2.988 -17.420  0.00  0.00     0.256 S 
ATOM      8  O2  <0> d  11     -13.603   3.882 -16.771  0.00  0.00    -0.201 OA
ATOM      9  O3  <0> d  11     -14.248   1.591 -17.506  0.00  0.00    -0.201 OA
BRANCH   7  10
ATOM     10  N1  <0> d  11     -14.668   3.534 -18.974  0.00  0.00    -0.324 N 
ATOM     11  H5  <0> d  11     -15.538   3.512 -19.402  0.00  0.00     0.169 HD
ATOM     12  H6  <0> d  11     -13.899   3.877 -19.455  0.00  0.00     0.169 HD
ENDBRANCH   7  10
ENDBRANCH   3   7
BRANCH   6  13
ATOM     13  C7  <0> d  11     -19.826   3.622 -14.717  0.00  0.00     0.209 C 
ATOM     14  O1  <0> d  11     -19.923   3.446 -13.519  0.00  0.00    -0.644 OA
ATOM     15  O4  <0> d  11     -20.910   3.964 -15.439  0.00  0.00    -0.644 OA
ENDBRANCH   6  13
TORSDOF 3
ENDMDL
MODEL 3
REMARK VINA RESULT:    -5.064      2.755      5.457
REMARK INTER + INTRA:          -5.912
REMARK INTER:                  -5.810
REMARK INTRA:                  -0.102
REMARK UNBOUND:                -0.108
REMARK  3 active torsions:
REMARK  status: ('A' for Active; 'I' for Inactive)
REMARK    1  A    between atoms: C3_3  and  S1_15 
REMARK    2  A    between atoms: C6_6  and  C7_7 
REMARK    3  A    between atoms: S1_15  and  N1_10 
ROOT
ATOM      1  C1  <0> d  11     -16.638   2.573 -16.678  0.00  0.00     0.020 A 
ATOM      2  C2  <0> d  11     -17.953   2.522 -16.262  0.00  0.00     0.026 A 
ATOM      3  C3  <0> d  11     -18.395   3.361 -15.256  0.00  0.00     0.079 A 
ATOM      4  C4  <0> d  11     -17.524   4.253 -14.656  0.00  0.00     0.026 A 
ATOM      5  C5  <0> d  11     -16.205   4.311 -15.058  0.00  0.00     0.020 A 
ATOM      6  C6  <0> d  11     -15.752   3.466 -16.073  0.00  0.00     0.040 A 
ENDROOT
BRANCH   3   7
ATOM      7  S1  <0> d  11     -20.078   3.295 -14.736  0.00  0.00     0.256 S 
ATOM      8  O2  <0> d  11     -20.094   3.670 -13.365  0.00  0.00    -0.201 OA
ATOM      9  O3  <0> d  11     -20.836   3.982 -15.723  0.00  0.00    -0.201 OA
BRANCH   7  10
ATOM     10  N1  <0> d  11     -20.547   1.709 -14.798  0.00  0.00    -0.324 N 
ATOM     11  H5  <0> d  11     -20.705   1.283 -15.656  0.00  0.00     0.169 HD
ATOM     12  H6  <0> d  11     -20.663   1.204 -13.978  0.00  0.00     0.169 HD
ENDBRANCH   7  10
ENDBRANCH   3   7
BRANCH   6  13
ATOM     13  C7  <0> d  11     -14.341   3.522 -16.509  0.00  0.00     0.209 C 
ATOM     14  O1  <0> d  11     -13.972   4.402 -17.261  0.00  0.00    -0.644 OA
ATOM     15  O4  <0> d  11     -13.464   2.600 -16.069  0.00  0.00    -0.644 OA
ENDBRANCH   6  13
TORSDOF 3
ENDMDL
MODEL 4
REMARK VINA RESULT:    -4.951      1.955      2.699
REMARK INTER + INTRA:          -5.782
REMARK INTER:                  -5.669
REMARK INTRA:                  -0.113
REMARK UNBOUND:                -0.108
REMARK  3 active torsions:
REMARK  status: ('A' for Active; 'I' for Inactive)
REMARK    1  A    between atoms: C3_3  and  S1_15 
REMARK    2  A    between atoms: C6_6  and  C7_7 
REMARK    3  A    between atoms: S1_15  and  N1_10 
ROOT
ATOM      1  C1  <0> d  11     -16.758   2.618 -17.865  0.00  0.00     0.020 A 
ATOM      2  C2  <0> d  11     -15.498   2.778 -18.403  0.00  0.00     0.026 A 
ATOM      3  C3  <0> d  11     -14.481   3.322 -17.641  0.00  0.00     0.079 A 
ATOM      4  C4  <0> d  11     -14.719   3.713 -16.335  0.00  0.00     0.026 A 
ATOM      5  C5  <0> d  11     -15.975   3.563 -15.785  0.00  0.00     0.020 A 
ATOM      6  C6  <0> d  11     -17.007   3.015 -16.550  0.00  0.00     0.040 A 
ENDROOT
BRANCH   3   7
ATOM      7  S1  <0> d  11     -12.873   3.517 -18.334  0.00  0.00     0.256 S 
ATOM      8  O2  <0> d  11     -12.351   2.209 -18.523  0.00  0.00    -0.201 OA
ATOM      9  O3  <0> d  11     -13.000   4.448 -19.401  0.00  0.00    -0.201 OA
BRANCH   7  10
ATOM     10  N1  <0> d  11     -11.928   4.242 -17.184  0.00  0.00    -0.324 N 
ATOM     11  H5  <0> d  11     -11.279   3.717 -16.690  0.00  0.00     0.169 HD
ATOM     12  H6  <0> d  11     -12.024   5.190 -17.004  0.00  0.00     0.169 HD
ENDBRANCH   7  10
ENDBRANCH   3   7
BRANCH   6  13
ATOM     13  C7  <0> d  11     -18.356   2.852 -15.967  0.00  0.00     0.209 C 
ATOM     14  O1  <0> d  11     -19.251   2.375 -16.635  0.00  0.00    -0.644 OA
ATOM     15  O4  <0> d  11     -18.590   3.229 -14.696  0.00  0.00    -0.644 OA
ENDBRANCH   6  13
TORSDOF 3
ENDMDL
MODEL 5
REMARK VINA RESULT:    -4.802      5.392      6.114
REMARK INTER + INTRA:          -5.612
REMARK INTER:                  -5.504
REMARK INTRA:                  -0.108
REMARK UNBOUND:                -0.108
REMARK  3 active torsions:
REMARK  status: ('A' for Active; 'I' for Inactive)
REMARK    1  A    between atoms: C3_3  and  S1_15 
REMARK    2  A    between atoms: C6_6  and  C7_7 
REMARK    3  A    between atoms: S1_15  and  N1_10 
ROOT
ATOM      1  C1  <0> d  11     -13.356   3.419 -18.697  0.00  0.00     0.020 A 
ATOM      2  C2  <0> d  11     -13.480   2.059 -18.494  0.00  0.00     0.026 A 
ATOM      3  C3  <0> d  11     -12.801   1.447 -17.456  0.00  0.00     0.079 A 
ATOM      4  C4  <0> d  11     -11.990   2.191 -16.617  0.00  0.00     0.026 A 
ATOM      5  C5  <0> d  11     -11.853   3.550 -16.810  0.00  0.00     0.020 A 
ATOM      6  C6  <0> d  11     -12.535   4.174 -17.857  0.00  0.00     0.040 A 
ENDROOT
BRANCH   3   7
ATOM      7  S1  <0> d  11     -12.970  -0.288 -17.201  0.00  0.00     0.256 S 
ATOM      8  O2  <0> d  11     -11.704  -0.866 -17.489  0.00  0.00    -0.201 OA
ATOM      9  O3  <0> d  11     -13.615  -0.454 -15.945  0.00  0.00    -0.201 OA
BRANCH   7  10
ATOM     10  N1  <0> d  11     -14.020  -0.852 -18.350  0.00  0.00    -0.324 N 
ATOM     11  H5  <0> d  11     -14.688  -1.515 -18.113  0.00  0.00     0.169 HD
ATOM     12  H6  <0> d  11     -13.968  -0.519 -19.260  0.00  0.00     0.169 HD
ENDBRANCH   7  10
ENDBRANCH   3   7
BRANCH   6  13
ATOM     13  C7  <0> d  11     -12.393   5.630 -18.071  0.00  0.00     0.209 C 
ATOM     14  O1  <0> d  11     -13.358   6.293 -18.392  0.00  0.00    -0.644 OA
ATOM     15  O4  <0> d  11     -11.194   6.220 -17.904  0.00  0.00    -0.644 OA
ENDBRANCH   6  13
TORSDOF 3
ENDMDL
