REMARK INTER + INTRA:          -9.206
REMARK INTER:                  -8.724
REMARK INTRA:                  -0.482
REMARK UNBOUND:                -0.408
REMARK  3 active torsions:
REMARK  status: ('A' for Active; 'I' for Inactive)
REMARK    1  A    between atoms: C4_4  and  C7_7 
REMARK    2  A    between atoms: C14_14  and  C16_16 
REMARK    3  A    between atoms: C16_16  and  C17_17 
ROOT
ATOM      1  C7  <0> d  11     -15.707   3.162 -16.673  0.00  0.00     0.090 A 
ATOM      2  C8  <0> d  11     -16.362   3.484 -15.525  0.00  0.00     0.093 A 
ATOM      3  C9  <0> d  11     -17.766   3.320 -15.455  0.00  0.00     0.187 A 
ATOM      4  C10 <0> d  11     -18.448   2.791 -16.653  0.00  0.00     0.048 A 
ATOM      5  C11 <0> d  11     -19.827   2.594 -16.675  0.00  0.00     0.018 A 
ATOM      6  C12 <0> d  11     -20.426   2.098 -17.813  0.00  0.00     0.002 A 
ATOM      7  C13 <0> d  11     -19.662   1.798 -18.930  0.00  0.00     0.010 A 
ATOM      8  C14 <0> d  11     -18.297   1.987 -18.921  0.00  0.00    -0.013 A 
ATOM      9  C15 <0> d  11     -17.673   2.486 -17.783  0.00  0.00     0.097 A 
ATOM     10  O1  <0> d  11     -18.388   3.603 -14.445  0.00  0.00    -0.287 OA
ATOM     11  O2  <0> d  11     -16.339   2.681 -17.754  0.00  0.00    -0.308 OA
ENDROOT
BRANCH   1  12
ATOM     12  C4  <0> d  11     -14.243   3.343 -16.728  0.00  0.00    -0.002 A 
ATOM     13  C3  <0> d  11     -13.395   2.383 -16.170  0.00  0.00     0.014 A 
ATOM     14  C2  <0> d  11     -12.028   2.559 -16.226  0.00  0.00     0.001 A 
ATOM     15  C1  <0> d  11     -11.496   3.684 -16.832  0.00  0.00     0.000 A 
ATOM     16  C6  <0> d  11     -12.329   4.638 -17.387  0.00  0.00     0.001 A 
ATOM     17  C5  <0> d  11     -13.699   4.473 -17.343  0.00  0.00     0.014 A 
ENDBRANCH   1  12
BRANCH   8  18
ATOM     18  C16 <0> d  11     -17.480   1.654 -20.143  0.00  0.00     0.154 C 
BRANCH  18  19
ATOM     19  C17 <0> d  11     -17.927   0.327 -20.700  0.00  0.00     0.177 C 
ATOM     20  O3  <0> d  11     -17.681  -0.694 -20.101  0.00  0.00    -0.648 OA
ATOM     21  O4  <0> d  11     -18.597   0.279 -21.862  0.00  0.00    -0.648 OA
ENDBRANCH  18  19
ENDBRANCH   8  18
TORSDOF 3
ENDMDL
