REMARK INTER + INTRA:          -6.105
REMARK INTER:                  -5.998
REMARK INTRA:                  -0.107
REMARK UNBOUND:                -0.108
REMARK  3 active torsions:
REMARK  status: ('A' for Active; 'I' for Inactive)
REMARK    1  A    between atoms: C3_3  and  S1_15 
REMARK    2  A    between atoms: C6_6  and  C7_7 
REMARK    3  A    between atoms: S1_15  and  N1_10 
ROOT
ATOM      1  C1  <0> d  11     -18.400   2.680 -16.530  0.00  0.00     0.020 A 
ATOM      2  C2  <0> d  11     -17.174   2.543 -17.149  0.00  0.00     0.026 A 
ATOM      3  C3  <0> d  11     -16.060   3.174 -16.628  0.00  0.00     0.079 A 
ATOM      4  C4  <0> d  11     -16.165   3.950 -15.487  0.00  0.00     0.026 A 
ATOM      5  C5  <0> d  11     -17.385   4.100 -14.861  0.00  0.00     0.020 A 
ATOM      6  C6  <0> d  11     -18.515   3.466 -15.382  0.00  0.00     0.040 A 
ENDROOT
BRANCH   3   7
ATOM      7  S1  <0> d  11     -14.497   2.988 -17.420  0.00  0.00     0.256 S 
ATOM      8  O2  <0> d  11     -13.603   3.882 -16.771  0.00  0.00    -0.201 OA
ATOM      9  O3  <0> d  11     -14.248   1.591 -17.506  0.00  0.00    -0.201 OA
BRANCH   7  10
ATOM     10  N1  <0> d  11     -14.668   3.534 -18.974  0.00  0.00    -0.324 N 
ATOM     11  H5  <0> d  11     -15.538   3.512 -19.402  0.00  0.00     0.169 HD
ATOM     12  H6  <0> d  11     -13.899   3.877 -19.455  0.00  0.00     0.169 HD
ENDBRANCH   7  10
ENDBRANCH   3   7
BRANCH   6  13
ATOM     13  C7  <0> d  11     -19.826   3.622 -14.717  0.00  0.00     0.209 C 
ATOM     14  O1  <0> d  11     -19.923   3.446 -13.519  0.00  0.00    -0.644 OA
ATOM     15  O4  <0> d  11     -20.910   3.964 -15.439  0.00  0.00    -0.644 OA
ENDBRANCH   6  13
TORSDOF 3
ENDMDL
