MODEL 1
REMARK VINA RESULT:    -7.807      0.000      0.000
REMARK INTER + INTRA:          -9.771
REMARK INTER:                  -9.126
REMARK INTRA:                  -0.645
REMARK UNBOUND:                -0.595
REMARK  3 active torsions:
REMARK  status: ('A' for Active; 'I' for Inactive)
REMARK    1  A    between atoms: C4_4  and  C7_7 
REMARK    2  A    between atoms: C14_14  and  C16_16 
REMARK    3  A    between atoms: C16_16  and  C17_17 
ROOT
ATOM      1  C7  <0> d  11     -14.231   2.355 -16.902  0.00  0.00     0.090 A 
ATOM      2  C8  <0> d  11     -13.062   2.904 -16.476  0.00  0.00     0.093 A 
ATOM      3  C9  <0> d  11     -11.836   2.410 -16.981  0.00  0.00     0.187 A 
ATOM      4  C10 <0> d  11     -11.901   1.312 -17.966  0.00  0.00     0.048 A 
ATOM      5  C11 <0> d  11     -10.745   0.765 -18.519  0.00  0.00     0.018 A 
ATOM      6  C12 <0> d  11     -10.849  -0.259 -19.436  0.00  0.00     0.002 A 
ATOM      7  C13 <0> d  11     -12.094  -0.744 -19.805  0.00  0.00     0.010 A 
ATOM      8  C14 <0> d  11     -13.245  -0.210 -19.265  0.00  0.00    -0.013 A 
ATOM      9  C15 <0> d  11     -13.163   0.823 -18.339  0.00  0.00     0.097 A 
ATOM     10  O1  <0> d  11     -10.767   2.874 -16.619  0.00  0.00    -0.287 OA
ATOM     11  O2  <0> d  11     -14.277   1.358 -17.798  0.00  0.00    -0.308 OA
ENDROOT
BRANCH   1  12
ATOM     12  C4  <0> d  11     -15.500   2.881 -16.360  0.00  0.00    -0.002 A 
ATOM     13  C3  <0> d  11     -15.486   3.842 -15.347  0.00  0.00     0.014 A 
ATOM     14  C2  <0> d  11     -16.676   4.329 -14.847  0.00  0.00     0.001 A 
ATOM     15  C1  <0> d  11     -17.881   3.868 -15.345  0.00  0.00     0.000 A 
ATOM     16  C6  <0> d  11     -17.903   2.915 -16.348  0.00  0.00     0.001 A 
ATOM     17  C5  <0> d  11     -16.721   2.424 -16.862  0.00  0.00     0.014 A 
ENDBRANCH   1  12
BRANCH   8  18
ATOM     18  C16 <0> d  11     -14.592  -0.747 -19.678  0.00  0.00     0.154 C 
BRANCH  18  19
ATOM     19  C17 <0> d  11     -15.019  -0.093 -20.967  0.00  0.00     0.177 C 
ATOM     20  O3  <0> d  11     -15.650   0.936 -20.941  0.00  0.00    -0.648 OA
ATOM     21  O4  <0> d  11     -14.698  -0.654 -22.142  0.00  0.00    -0.648 OA
ENDBRANCH  18  19
ENDBRANCH   8  18
TORSDOF 3
ENDMDL
MODEL 2
REMARK VINA RESULT:    -7.624      2.163      2.903
REMARK INTER + INTRA:          -9.556
REMARK INTER:                  -8.920
REMARK INTRA:                  -0.636
REMARK UNBOUND:                -0.595
REMARK  3 active torsions:
REMARK  status: ('A' for Active; 'I' for Inactive)
REMARK    1  A    between atoms: C4_4  and  C7_7 
REMARK    2  A    between atoms: C14_14  and  C16_16 
REMARK    3  A    between atoms: C16_16  and  C17_17 
ROOT
ATOM      1  C7  <0> d  11     -14.470   2.812 -16.511  0.00  0.00     0.090 A 
ATOM      2  C8  <0> d  11     -13.588   3.831 -16.692  0.00  0.00     0.093 A 
ATOM      3  C9  <0> d  11     -12.284   3.548 -17.164  0.00  0.00     0.187 A 
ATOM      4  C10 <0> d  11     -11.956   2.137 -17.447  0.00  0.00     0.048 A 
ATOM      5  C11 <0> d  11     -10.699   1.766 -17.919  0.00  0.00     0.018 A 
ATOM      6  C12 <0> d  11     -10.432   0.438 -18.171  0.00  0.00     0.002 A 
ATOM      7  C13 <0> d  11     -11.408  -0.525 -17.956  0.00  0.00     0.010 A 
ATOM      8  C14 <0> d  11     -12.656  -0.170 -17.491  0.00  0.00    -0.013 A 
ATOM      9  C15 <0> d  11     -12.945   1.165 -17.230  0.00  0.00     0.097 A 
ATOM     10  O1  <0> d  11     -11.465   4.436 -17.333  0.00  0.00    -0.287 OA
ATOM     11  O2  <0> d  11     -14.160   1.533 -16.773  0.00  0.00    -0.308 OA
ENDROOT
BRANCH   1  12
ATOM     12  C4  <0> d  11     -15.824   3.125 -16.013  0.00  0.00    -0.002 A 
ATOM     13  C3  <0> d  11     -16.919   2.362 -16.426  0.00  0.00     0.014 A 
ATOM     14  C2  <0> d  11     -18.180   2.661 -15.956  0.00  0.00     0.001 A 
ATOM     15  C1  <0> d  11     -18.365   3.713 -15.078  0.00  0.00     0.000 A 
ATOM     16  C6  <0> d  11     -17.285   4.474 -14.664  0.00  0.00     0.001 A 
ATOM     17  C5  <0> d  11     -16.017   4.183 -15.121  0.00  0.00     0.014 A 
ENDBRANCH   1  12
BRANCH   8  18
ATOM     18  C16 <0> d  11     -13.706  -1.227 -17.265  0.00  0.00     0.154 C 
BRANCH  18  19
ATOM     19  C17 <0> d  11     -13.489  -1.870 -15.919  0.00  0.00     0.177 C 
ATOM     20  O3  <0> d  11     -13.988  -1.386 -14.931  0.00  0.00    -0.648 OA
ATOM     21  O4  <0> d  11     -12.743  -2.980 -15.818  0.00  0.00    -0.648 OA
ENDBRANCH  18  19
ENDBRANCH   8  18
TORSDOF 3
ENDMDL
MODEL 3
REMARK VINA RESULT:    -7.320      2.828      5.534
REMARK INTER + INTRA:          -9.199
REMARK INTER:                  -8.702
REMARK INTRA:                  -0.497
REMARK UNBOUND:                -0.595
REMARK  3 active torsions:
REMARK  status: ('A' for Active; 'I' for Inactive)
REMARK    1  A    between atoms: C4_4  and  C7_7 
REMARK    2  A    between atoms: C14_14  and  C16_16 
REMARK    3  A    between atoms: C16_16  and  C17_17 
ROOT
ATOM      1  C7  <0> d  11     -15.659   3.186 -16.664  0.00  0.00     0.090 A 
ATOM      2  C8  <0> d  11     -16.315   3.504 -15.515  0.00  0.00     0.093 A 
ATOM      3  C9  <0> d  11     -17.719   3.341 -15.446  0.00  0.00     0.187 A 
ATOM      4  C10 <0> d  11     -18.400   2.814 -16.645  0.00  0.00     0.048 A 
ATOM      5  C11 <0> d  11     -19.779   2.617 -16.667  0.00  0.00     0.018 A 
ATOM      6  C12 <0> d  11     -20.378   2.124 -17.806  0.00  0.00     0.002 A 
ATOM      7  C13 <0> d  11     -19.614   1.826 -18.925  0.00  0.00     0.010 A 
ATOM      8  C14 <0> d  11     -18.249   2.016 -18.915  0.00  0.00    -0.013 A 
ATOM      9  C15 <0> d  11     -17.625   2.513 -17.776  0.00  0.00     0.097 A 
ATOM     10  O1  <0> d  11     -18.341   3.621 -14.435  0.00  0.00    -0.287 OA
ATOM     11  O2  <0> d  11     -16.291   2.708 -17.746  0.00  0.00    -0.308 OA
ENDROOT
BRANCH   1  12
ATOM     12  C4  <0> d  11     -14.195   3.368 -16.718  0.00  0.00    -0.002 A 
ATOM     13  C3  <0> d  11     -13.651   4.497 -17.334  0.00  0.00     0.014 A 
ATOM     14  C2  <0> d  11     -12.282   4.661 -17.381  0.00  0.00     0.001 A 
ATOM     15  C1  <0> d  11     -11.448   3.710 -16.821  0.00  0.00     0.000 A 
ATOM     16  C6  <0> d  11     -11.980   2.588 -16.210  0.00  0.00     0.001 A 
ATOM     17  C5  <0> d  11     -13.347   2.415 -16.150  0.00  0.00     0.014 A 
ENDBRANCH   1  12
BRANCH   8  18
ATOM     18  C16 <0> d  11     -17.432   1.686 -20.138  0.00  0.00     0.154 C 
BRANCH  18  19
ATOM     19  C17 <0> d  11     -17.838   0.334 -20.664  0.00  0.00     0.177 C 
ATOM     20  O3  <0> d  11     -17.586  -0.662 -20.028  0.00  0.00    -0.648 OA
ATOM     21  O4  <0> d  11     -18.482   0.236 -21.837  0.00  0.00    -0.648 OA
ENDBRANCH  18  19
ENDBRANCH   8  18
TORSDOF 3
ENDMDL
MODEL 4
REMARK VINA RESULT:    -7.233      3.007      4.303
REMARK INTER + INTRA:          -9.097
REMARK INTER:                  -8.502
REMARK INTRA:                  -0.595
REMARK UNBOUND:                -0.595
REMARK  3 active torsions:
REMARK  status: ('A' for Active; 'I' for Inactive)
REMARK    1  A    between atoms: C4_4  and  C7_7 
REMARK    2  A    between atoms: C14_14  and  C16_16 
REMARK    3  A    between atoms: C16_16  and  C17_17 
ROOT
ATOM      1  C7  <0> d  11     -12.308   1.998 -17.922  0.00  0.00     0.090 A 
ATOM      2  C8  <0> d  11     -11.336   1.410 -18.672  0.00  0.00     0.093 A 
ATOM      3  C9  <0> d  11     -11.150   0.009 -18.597  0.00  0.00     0.187 A 
ATOM      4  C10 <0> d  11     -12.045  -0.747 -17.699  0.00  0.00     0.048 A 
ATOM      5  C11 <0> d  11     -11.937  -2.129 -17.564  0.00  0.00     0.018 A 
ATOM      6  C12 <0> d  11     -12.791  -2.799 -16.715  0.00  0.00     0.002 A 
ATOM      7  C13 <0> d  11     -13.752  -2.102 -15.997  0.00  0.00     0.010 A 
ATOM      8  C14 <0> d  11     -13.869  -0.735 -16.123  0.00  0.00    -0.013 A 
ATOM      9  C15 <0> d  11     -13.017  -0.040 -16.974  0.00  0.00     0.097 A 
ATOM     10  O1  <0> d  11     -10.286  -0.551 -19.251  0.00  0.00    -0.287 OA
ATOM     11  O2  <0> d  11     -13.114   1.298 -17.110  0.00  0.00    -0.308 OA
ENDROOT
BRANCH   1  12
ATOM     12  C4  <0> d  11     -12.484   3.461 -18.010  0.00  0.00    -0.002 A 
ATOM     13  C3  <0> d  11     -13.456   4.001 -18.855  0.00  0.00     0.014 A 
ATOM     14  C2  <0> d  11     -13.615   5.369 -18.931  0.00  0.00     0.001 A 
ATOM     15  C1  <0> d  11     -12.815   6.206 -18.174  0.00  0.00     0.000 A 
ATOM     16  C6  <0> d  11     -11.850   5.678 -17.335  0.00  0.00     0.001 A 
ATOM     17  C5  <0> d  11     -11.684   4.311 -17.244  0.00  0.00     0.014 A 
ENDBRANCH   1  12
BRANCH   8  18
ATOM     18  C16 <0> d  11     -14.920   0.008 -15.337  0.00  0.00     0.154 C 
BRANCH  18  19
ATOM     19  C17 <0> d  11     -16.260  -0.166 -16.003  0.00  0.00     0.177 C 
ATOM     20  O3  <0> d  11     -17.092  -0.887 -15.506  0.00  0.00    -0.648 OA
ATOM     21  O4  <0> d  11     -16.531   0.482 -17.146  0.00  0.00    -0.648 OA
ENDBRANCH  18  19
ENDBRANCH   8  18
TORSDOF 3
ENDMDL
MODEL 5
REMARK VINA RESULT:    -7.173      2.232      4.556
REMARK INTER + INTRA:          -9.026
REMARK INTER:                  -8.387
REMARK INTRA:                  -0.638
REMARK UNBOUND:                -0.595
REMARK  3 active torsions:
REMARK  status: ('A' for Active; 'I' for Inactive)
REMARK    1  A    between atoms: C4_4  and  C7_7 
REMARK    2  A    between atoms: C14_14  and  C16_16 
REMARK    3  A    between atoms: C16_16  and  C17_17 
ROOT
ATOM      1  C7  <0> d  11     -15.157   0.530 -19.984  0.00  0.00     0.090 A 
ATOM      2  C8  <0> d  11     -14.701  -0.547 -20.679  0.00  0.00     0.093 A 
ATOM      3  C9  <0> d  11     -13.351  -0.947 -20.536  0.00  0.00     0.187 A 
ATOM      4  C10 <0> d  11     -12.505  -0.163 -19.615  0.00  0.00     0.048 A 
ATOM      5  C11 <0> d  11     -11.165  -0.487 -19.409  0.00  0.00     0.018 A 
ATOM      6  C12 <0> d  11     -10.408   0.271 -18.541  0.00  0.00     0.002 A 
ATOM      7  C13 <0> d  11     -10.974   1.349 -17.878  0.00  0.00     0.010 A 
ATOM      8  C14 <0> d  11     -12.299   1.678 -18.072  0.00  0.00    -0.013 A 
ATOM      9  C15 <0> d  11     -13.079   0.927 -18.943  0.00  0.00     0.097 A 
ATOM     10  O1  <0> d  11     -12.906  -1.904 -21.147  0.00  0.00    -0.287 OA
ATOM     11  O2  <0> d  11     -14.377   1.234 -19.149  0.00  0.00    -0.308 OA
ENDROOT
BRANCH   1  12
ATOM     12  C4  <0> d  11     -16.567   0.936 -20.149  0.00  0.00    -0.002 A 
ATOM     13  C3  <0> d  11     -17.194   1.710 -19.170  0.00  0.00     0.014 A 
ATOM     14  C2  <0> d  11     -18.511   2.085 -19.332  0.00  0.00     0.001 A 
ATOM     15  C1  <0> d  11     -19.212   1.698 -20.461  0.00  0.00     0.000 A 
ATOM     16  C6  <0> d  11     -18.597   0.931 -21.435  0.00  0.00     0.001 A 
ATOM     17  C5  <0> d  11     -17.278   0.553 -21.289  0.00  0.00     0.014 A 
ENDBRANCH   1  12
BRANCH   8  18
ATOM     18  C16 <0> d  11     -12.900   2.852 -17.342  0.00  0.00     0.154 C 
BRANCH  18  19
ATOM     19  C17 <0> d  11     -12.510   4.130 -18.039  0.00  0.00     0.177 C 
ATOM     20  O3  <0> d  11     -11.857   4.961 -17.455  0.00  0.00    -0.648 OA
ATOM     21  O4  <0> d  11     -12.888   4.344 -19.308  0.00  0.00    -0.648 OA
ENDBRANCH  18  19
ENDBRANCH   8  18
TORSDOF 3
ENDMDL
