MODEL 1
REMARK VINA RESULT:    -7.485      0.000      0.000
REMARK INTER + INTRA:          -8.872
REMARK INTER:                  -8.346
REMARK INTRA:                  -0.526
REMARK UNBOUND:                -0.512
REMARK  2 active torsions:
REMARK  status: ('A' for Active; 'I' for Inactive)
REMARK    1  A    between atoms: C4_4  and  C6_6 
REMARK    2  A    between atoms: C6_6  and  N1_20 
ROOT
ATOM      1  C7  <0> d  11     -13.371   3.894 -18.147  0.00  0.00     0.052 A 
ATOM      2  C8  <0> d  11     -13.713   5.083 -18.770  0.00  0.00     0.031 A 
ATOM      3  C9  <0> d  11     -12.980   6.230 -18.523  0.00  0.00     0.002 A 
ATOM      4  C10 <0> d  11     -11.904   6.201 -17.657  0.00  0.00     0.002 A 
ATOM      5  C11 <0> d  11     -11.553   5.017 -17.027  0.00  0.00     0.021 A 
ATOM      6  C12 <0> d  11     -12.283   3.870 -17.270  0.00  0.00     0.032 A 
ATOM      7  C13 <0> d  11     -12.422   1.149 -17.651  0.00  0.00     0.032 A 
ATOM      8  C14 <0> d  11     -13.494   1.475 -18.486  0.00  0.00     0.052 A 
ATOM      9  C15 <0> d  11     -13.945   0.542 -19.407  0.00  0.00     0.031 A 
ATOM     10  C16 <0> d  11     -13.334  -0.696 -19.492  0.00  0.00     0.002 A 
ATOM     11  C17 <0> d  11     -12.274  -1.014 -18.664  0.00  0.00     0.002 A 
ATOM     12  C18 <0> d  11     -11.816  -0.089 -17.740  0.00  0.00     0.021 A 
ATOM     13  N1  <0> d  11     -14.106   2.730 -18.394  0.00  0.00    -0.344 N 
ATOM     14  S1  <0> d  11     -11.860   2.347 -16.482  0.00  0.00    -0.086 SA
ENDROOT
BRANCH  13  15
ATOM     15  C6  <0> d  11     -15.558   2.827 -18.563  0.00  0.00     0.136 C 
BRANCH  15  16
ATOM     16  C4  <0> d  11     -16.251   2.404 -17.267  0.00  0.00     0.031 C 
ATOM     17  C3  <0> d  11     -16.034   3.464 -16.156  0.00  0.00     0.035 C 
ATOM     18  C2  <0> d  11     -17.275   3.238 -15.258  0.00  0.00     0.234 C 
ATOM     19  N2  <0> d  11     -18.366   2.945 -16.209  0.00  0.00    -0.074 N 
ATOM     20  C1  <0> d  11     -19.316   1.968 -15.613  0.00  0.00     0.269 C 
ATOM     21  C5  <0> d  11     -17.784   2.397 -17.446  0.00  0.00     0.240 C 
ATOM     22  H21 <0> d  11     -18.869   3.812 -16.426  0.00  0.00     0.279 HD
ENDBRANCH  15  16
ENDBRANCH  13  15
TORSDOF 2
ENDMDL
MODEL 2
REMARK VINA RESULT:    -6.874      2.845      5.608
REMARK INTER + INTRA:          -8.190
REMARK INTER:                  -7.666
REMARK INTRA:                  -0.524
REMARK UNBOUND:                -0.512
REMARK  2 active torsions:
REMARK  status: ('A' for Active; 'I' for Inactive)
REMARK    1  A    between atoms: C4_4  and  C6_6 
REMARK    2  A    between atoms: C6_6  and  N1_20 
ROOT
ATOM      1  C7  <0> d  11     -13.522   0.000 -19.503  0.00  0.00     0.052 A 
ATOM      2  C8  <0> d  11     -13.008  -0.957 -20.362  0.00  0.00     0.031 A 
ATOM      3  C9  <0> d  11     -13.690  -1.288 -21.519  0.00  0.00     0.002 A 
ATOM      4  C10 <0> d  11     -14.886  -0.669 -21.827  0.00  0.00     0.002 A 
ATOM      5  C11 <0> d  11     -15.412   0.289 -20.975  0.00  0.00     0.021 A 
ATOM      6  C12 <0> d  11     -14.734   0.622 -19.818  0.00  0.00     0.032 A 
ATOM      7  C13 <0> d  11     -13.913   2.485 -17.968  0.00  0.00     0.032 A 
ATOM      8  C14 <0> d  11     -12.792   1.657 -17.858  0.00  0.00     0.052 A 
ATOM      9  C15 <0> d  11     -11.637   2.153 -17.275  0.00  0.00     0.031 A 
ATOM     10  C16 <0> d  11     -11.601   3.455 -16.810  0.00  0.00     0.002 A 
ATOM     11  C17 <0> d  11     -12.712   4.270 -16.921  0.00  0.00     0.002 A 
ATOM     12  C18 <0> d  11     -13.872   3.785 -17.502  0.00  0.00     0.021 A 
ATOM     13  N1  <0> d  11     -12.836   0.341 -18.333  0.00  0.00    -0.344 N 
ATOM     14  S1  <0> d  11     -15.378   1.839 -18.713  0.00  0.00    -0.086 SA
ENDROOT
BRANCH  13  15
ATOM     15  C6  <0> d  11     -12.142  -0.708 -17.582  0.00  0.00     0.136 C 
BRANCH  15  16
ATOM     16  C4  <0> d  11     -13.170  -1.622 -16.915  0.00  0.00     0.031 C 
ATOM     17  C3  <0> d  11     -12.477  -2.849 -16.267  0.00  0.00     0.035 C 
ATOM     18  C2  <0> d  11     -13.479  -3.222 -15.147  0.00  0.00     0.234 C 
ATOM     19  N2  <0> d  11     -13.964  -1.921 -14.642  0.00  0.00    -0.074 N 
ATOM     20  C1  <0> d  11     -15.387  -2.032 -14.224  0.00  0.00     0.269 C 
ATOM     21  C5  <0> d  11     -13.825  -0.916 -15.708  0.00  0.00     0.240 C 
ATOM     22  H21 <0> d  11     -13.399  -1.639 -13.833  0.00  0.00     0.279 HD
ENDBRANCH  15  16
ENDBRANCH  13  15
TORSDOF 2
ENDMDL
MODEL 3
REMARK VINA RESULT:    -6.631      1.401      2.010
REMARK INTER + INTRA:          -7.918
REMARK INTER:                  -7.277
REMARK INTRA:                  -0.641
REMARK UNBOUND:                -0.512
REMARK  2 active torsions:
REMARK  status: ('A' for Active; 'I' for Inactive)
REMARK    1  A    between atoms: C4_4  and  C6_6 
REMARK    2  A    between atoms: C6_6  and  N1_20 
ROOT
ATOM      1  C7  <0> d  11     -13.901   2.719 -18.146  0.00  0.00     0.052 A 
ATOM      2  C8  <0> d  11     -13.800   4.097 -18.040  0.00  0.00     0.031 A 
ATOM      3  C9  <0> d  11     -12.728   4.663 -17.374  0.00  0.00     0.002 A 
ATOM      4  C10 <0> d  11     -11.752   3.864 -16.811  0.00  0.00     0.002 A 
ATOM      5  C11 <0> d  11     -11.843   2.484 -16.910  0.00  0.00     0.021 A 
ATOM      6  C12 <0> d  11     -12.912   1.915 -17.573  0.00  0.00     0.032 A 
ATOM      7  C13 <0> d  11     -13.959  -0.023 -19.223  0.00  0.00     0.032 A 
ATOM      8  C14 <0> d  11     -14.831   0.997 -19.613  0.00  0.00     0.052 A 
ATOM      9  C15 <0> d  11     -15.545   0.864 -20.793  0.00  0.00     0.031 A 
ATOM     10  C16 <0> d  11     -15.390  -0.269 -21.572  0.00  0.00     0.002 A 
ATOM     11  C17 <0> d  11     -14.526  -1.275 -21.181  0.00  0.00     0.002 A 
ATOM     12  C18 <0> d  11     -13.807  -1.153 -20.004  0.00  0.00     0.021 A 
ATOM     13  N1  <0> d  11     -14.981   2.140 -18.820  0.00  0.00    -0.344 N 
ATOM     14  S1  <0> d  11     -13.055   0.161 -17.716  0.00  0.00    -0.086 SA
ENDROOT
BRANCH  13  15
ATOM     15  C6  <0> d  11     -16.308   2.749 -18.696  0.00  0.00     0.136 C 
BRANCH  15  16
ATOM     16  C4  <0> d  11     -17.029   2.154 -17.485  0.00  0.00     0.031 C 
ATOM     17  C3  <0> d  11     -17.017   3.148 -16.295  0.00  0.00     0.035 C 
ATOM     18  C2  <0> d  11     -18.279   2.713 -15.509  0.00  0.00     0.234 C 
ATOM     19  N2  <0> d  11     -19.260   2.365 -16.556  0.00  0.00    -0.074 N 
ATOM     20  C1  <0> d  11     -20.122   1.243 -16.098  0.00  0.00     0.269 C 
ATOM     21  C5  <0> d  11     -18.535   1.981 -17.778  0.00  0.00     0.240 C 
ATOM     22  H21 <0> d  11     -19.850   3.181 -16.753  0.00  0.00     0.279 HD
ENDBRANCH  15  16
ENDBRANCH  13  15
TORSDOF 2
ENDMDL
MODEL 4
REMARK VINA RESULT:    -6.565      2.452      5.020
REMARK INTER + INTRA:          -7.845
REMARK INTER:                  -7.211
REMARK INTRA:                  -0.634
REMARK UNBOUND:                -0.512
REMARK  2 active torsions:
REMARK  status: ('A' for Active; 'I' for Inactive)
REMARK    1  A    between atoms: C4_4  and  C6_6 
REMARK    2  A    between atoms: C6_6  and  N1_20 
ROOT
ATOM      1  C7  <0> d  11     -13.222   0.360 -18.135  0.00  0.00     0.052 A 
ATOM      2  C8  <0> d  11     -12.765  -0.946 -18.190  0.00  0.00     0.031 A 
ATOM      3  C9  <0> d  11     -11.430  -1.203 -18.446  0.00  0.00     0.002 A 
ATOM      4  C10 <0> d  11     -10.543  -0.163 -18.646  0.00  0.00     0.002 A 
ATOM      5  C11 <0> d  11     -10.989   1.149 -18.594  0.00  0.00     0.021 A 
ATOM      6  C12 <0> d  11     -12.321   1.409 -18.340  0.00  0.00     0.032 A 
ATOM      7  C13 <0> d  11     -14.289   2.929 -17.162  0.00  0.00     0.032 A 
ATOM      8  C14 <0> d  11     -14.971   1.712 -17.087  0.00  0.00     0.052 A 
ATOM      9  C15 <0> d  11     -16.048   1.590 -16.223  0.00  0.00     0.031 A 
ATOM     10  C16 <0> d  11     -16.437   2.667 -15.447  0.00  0.00     0.002 A 
ATOM     11  C17 <0> d  11     -15.759   3.869 -15.525  0.00  0.00     0.002 A 
ATOM     12  C18 <0> d  11     -14.681   4.002 -16.385  0.00  0.00     0.021 A 
ATOM     13  N1  <0> d  11     -14.570   0.627 -17.875  0.00  0.00    -0.344 N 
ATOM     14  S1  <0> d  11     -12.918   3.069 -18.268  0.00  0.00    -0.086 SA
ENDROOT
BRANCH  13  15
ATOM     15  C6  <0> d  11     -15.593  -0.256 -18.442  0.00  0.00     0.136 C 
BRANCH  15  16
ATOM     16  C4  <0> d  11     -16.149   0.366 -19.723  0.00  0.00     0.031 C 
ATOM     17  C3  <0> d  11     -15.425  -0.206 -20.970  0.00  0.00     0.035 C 
ATOM     18  C2  <0> d  11     -16.502  -0.024 -22.069  0.00  0.00     0.234 C 
ATOM     19  N2  <0> d  11     -17.777  -0.321 -21.385  0.00  0.00    -0.074 N 
ATOM     20  C1  <0> d  11     -18.865   0.527 -21.941  0.00  0.00     0.269 C 
ATOM     21  C5  <0> d  11     -17.615  -0.061 -19.946  0.00  0.00     0.240 C 
ATOM     22  H21 <0> d  11     -18.016  -1.308 -21.528  0.00  0.00     0.279 HD
ENDBRANCH  15  16
ENDBRANCH  13  15
TORSDOF 2
ENDMDL
MODEL 5
REMARK VINA RESULT:    -6.515      2.700      4.570
REMARK INTER + INTRA:          -7.789
REMARK INTER:                  -7.277
REMARK INTRA:                  -0.512
REMARK UNBOUND:                -0.512
REMARK  2 active torsions:
REMARK  status: ('A' for Active; 'I' for Inactive)
REMARK    1  A    between atoms: C4_4  and  C6_6 
REMARK    2  A    between atoms: C6_6  and  N1_20 
ROOT
ATOM      1  C7  <0> d  11     -13.229   1.633 -17.686  0.00  0.00     0.052 A 
ATOM      2  C8  <0> d  11     -12.416   2.552 -18.331  0.00  0.00     0.031 A 
ATOM      3  C9  <0> d  11     -12.522   3.899 -18.034  0.00  0.00     0.002 A 
ATOM      4  C10 <0> d  11     -13.435   4.338 -17.094  0.00  0.00     0.002 A 
ATOM      5  C11 <0> d  11     -14.253   3.429 -16.443  0.00  0.00     0.021 A 
ATOM      6  C12 <0> d  11     -14.152   2.084 -16.738  0.00  0.00     0.032 A 
ATOM      7  C13 <0> d  11     -14.181  -0.555 -15.957  0.00  0.00     0.032 A 
ATOM      8  C14 <0> d  11     -13.254  -0.712 -16.992  0.00  0.00     0.052 A 
ATOM      9  C15 <0> d  11     -12.465  -1.850 -17.028  0.00  0.00     0.031 A 
ATOM     10  C16 <0> d  11     -12.597  -2.815 -16.046  0.00  0.00     0.002 A 
ATOM     11  C17 <0> d  11     -13.516  -2.655 -15.025  0.00  0.00     0.002 A 
ATOM     12  C18 <0> d  11     -14.310  -1.521 -14.979  0.00  0.00     0.021 A 
ATOM     13  N1  <0> d  11     -13.125   0.270 -17.981  0.00  0.00    -0.344 N 
ATOM     14  S1  <0> d  11     -15.181   0.901 -15.926  0.00  0.00    -0.086 SA
ENDROOT
BRANCH  13  15
ATOM     15  C6  <0> d  11     -12.872  -0.143 -19.363  0.00  0.00     0.136 C 
BRANCH  15  16
ATOM     16  C4  <0> d  11     -14.191  -0.551 -20.022  0.00  0.00     0.031 C 
ATOM     17  C3  <0> d  11     -15.091   0.689 -20.264  0.00  0.00     0.035 C 
ATOM     18  C2  <0> d  11     -15.956   0.221 -21.460  0.00  0.00     0.234 C 
ATOM     19  N2  <0> d  11     -15.027  -0.563 -22.299  0.00  0.00    -0.074 N 
ATOM     20  C1  <0> d  11     -15.751  -1.684 -22.955  0.00  0.00     0.269 C 
ATOM     21  C5  <0> d  11     -13.945  -1.086 -21.449  0.00  0.00     0.240 C 
ATOM     22  H21 <0> d  11     -14.627   0.046 -23.022  0.00  0.00     0.279 HD
ENDBRANCH  15  16
ENDBRANCH  13  15
TORSDOF 2
ENDMDL
