REMARK INTER + INTRA:          -9.097
REMARK INTER:                  -8.502
REMARK INTRA:                  -0.595
REMARK UNBOUND:                -0.595
REMARK  3 active torsions:
REMARK  status: ('A' for Active; 'I' for Inactive)
REMARK    1  A    between atoms: C4_4  and  C7_7 
REMARK    2  A    between atoms: C14_14  and  C16_16 
REMARK    3  A    between atoms: C16_16  and  C17_17 
ROOT
ATOM      1  C7  <0> d  11     -12.308   1.998 -17.922  0.00  0.00     0.090 A 
ATOM      2  C8  <0> d  11     -11.336   1.410 -18.672  0.00  0.00     0.093 A 
ATOM      3  C9  <0> d  11     -11.150   0.009 -18.597  0.00  0.00     0.187 A 
ATOM      4  C10 <0> d  11     -12.045  -0.747 -17.699  0.00  0.00     0.048 A 
ATOM      5  C11 <0> d  11     -11.937  -2.129 -17.564  0.00  0.00     0.018 A 
ATOM      6  C12 <0> d  11     -12.791  -2.799 -16.715  0.00  0.00     0.002 A 
ATOM      7  C13 <0> d  11     -13.752  -2.102 -15.997  0.00  0.00     0.010 A 
ATOM      8  C14 <0> d  11     -13.869  -0.735 -16.123  0.00  0.00    -0.013 A 
ATOM      9  C15 <0> d  11     -13.017  -0.040 -16.974  0.00  0.00     0.097 A 
ATOM     10  O1  <0> d  11     -10.286  -0.551 -19.251  0.00  0.00    -0.287 OA
ATOM     11  O2  <0> d  11     -13.114   1.298 -17.110  0.00  0.00    -0.308 OA
ENDROOT
BRANCH   1  12
ATOM     12  C4  <0> d  11     -12.484   3.461 -18.010  0.00  0.00    -0.002 A 
ATOM     13  C3  <0> d  11     -13.456   4.001 -18.855  0.00  0.00     0.014 A 
ATOM     14  C2  <0> d  11     -13.615   5.369 -18.931  0.00  0.00     0.001 A 
ATOM     15  C1  <0> d  11     -12.815   6.206 -18.174  0.00  0.00     0.000 A 
ATOM     16  C6  <0> d  11     -11.850   5.678 -17.335  0.00  0.00     0.001 A 
ATOM     17  C5  <0> d  11     -11.684   4.311 -17.244  0.00  0.00     0.014 A 
ENDBRANCH   1  12
BRANCH   8  18
ATOM     18  C16 <0> d  11     -14.920   0.008 -15.337  0.00  0.00     0.154 C 
BRANCH  18  19
ATOM     19  C17 <0> d  11     -16.260  -0.166 -16.003  0.00  0.00     0.177 C 
ATOM     20  O3  <0> d  11     -17.092  -0.887 -15.506  0.00  0.00    -0.648 OA
ATOM     21  O4  <0> d  11     -16.531   0.482 -17.146  0.00  0.00    -0.648 OA
ENDBRANCH  18  19
ENDBRANCH   8  18
TORSDOF 3
ENDMDL
