REMARK INTER + INTRA:          -8.872
REMARK INTER:                  -8.346
REMARK INTRA:                  -0.526
REMARK UNBOUND:                -0.512
REMARK  2 active torsions:
REMARK  status: ('A' for Active; 'I' for Inactive)
REMARK    1  A    between atoms: C4_4  and  C6_6 
REMARK    2  A    between atoms: C6_6  and  N1_20 
ROOT
ATOM      1  C7  <0> d  11     -13.371   3.894 -18.147  0.00  0.00     0.052 A 
ATOM      2  C8  <0> d  11     -13.713   5.083 -18.770  0.00  0.00     0.031 A 
ATOM      3  C9  <0> d  11     -12.980   6.230 -18.523  0.00  0.00     0.002 A 
ATOM      4  C10 <0> d  11     -11.904   6.201 -17.657  0.00  0.00     0.002 A 
ATOM      5  C11 <0> d  11     -11.553   5.017 -17.027  0.00  0.00     0.021 A 
ATOM      6  C12 <0> d  11     -12.283   3.870 -17.270  0.00  0.00     0.032 A 
ATOM      7  C13 <0> d  11     -12.422   1.149 -17.651  0.00  0.00     0.032 A 
ATOM      8  C14 <0> d  11     -13.494   1.475 -18.486  0.00  0.00     0.052 A 
ATOM      9  C15 <0> d  11     -13.945   0.542 -19.407  0.00  0.00     0.031 A 
ATOM     10  C16 <0> d  11     -13.334  -0.696 -19.492  0.00  0.00     0.002 A 
ATOM     11  C17 <0> d  11     -12.274  -1.014 -18.664  0.00  0.00     0.002 A 
ATOM     12  C18 <0> d  11     -11.816  -0.089 -17.740  0.00  0.00     0.021 A 
ATOM     13  N1  <0> d  11     -14.106   2.730 -18.394  0.00  0.00    -0.344 N 
ATOM     14  S1  <0> d  11     -11.860   2.347 -16.482  0.00  0.00    -0.086 SA
ENDROOT
BRANCH  13  15
ATOM     15  C6  <0> d  11     -15.558   2.827 -18.563  0.00  0.00     0.136 C 
BRANCH  15  16
ATOM     16  C4  <0> d  11     -16.251   2.404 -17.267  0.00  0.00     0.031 C 
ATOM     17  C3  <0> d  11     -16.034   3.464 -16.156  0.00  0.00     0.035 C 
ATOM     18  C2  <0> d  11     -17.275   3.238 -15.258  0.00  0.00     0.234 C 
ATOM     19  N2  <0> d  11     -18.366   2.945 -16.209  0.00  0.00    -0.074 N 
ATOM     20  C1  <0> d  11     -19.316   1.968 -15.613  0.00  0.00     0.269 C 
ATOM     21  C5  <0> d  11     -17.784   2.397 -17.446  0.00  0.00     0.240 C 
ATOM     22  H21 <0> d  11     -18.869   3.812 -16.426  0.00  0.00     0.279 HD
ENDBRANCH  15  16
ENDBRANCH  13  15
TORSDOF 2
ENDMDL
