REMARK INTER + INTRA:          -8.185
REMARK INTER:                  -7.651
REMARK INTRA:                  -0.534
REMARK UNBOUND:                -0.490
REMARK  2 active torsions:
REMARK  status: ('A' for Active; 'I' for Inactive)
REMARK    1  A    between atoms: C4_4  and  C6_6 
REMARK    2  A    between atoms: C6_6  and  N1_20 
ROOT
ATOM      1  C7  <0> d  11     -13.377  -0.171 -19.488  0.00  0.00     0.052 A 
ATOM      2  C8  <0> d  11     -12.781  -1.154 -20.262  0.00  0.00     0.031 A 
ATOM      3  C9  <0> d  11     -13.372  -1.556 -21.446  0.00  0.00     0.002 A 
ATOM      4  C10 <0> d  11     -14.557  -0.983 -21.866  0.00  0.00     0.002 A 
ATOM      5  C11 <0> d  11     -15.163  -0.000 -21.100  0.00  0.00     0.021 A 
ATOM      6  C12 <0> d  11     -14.576   0.403 -19.916  0.00  0.00     0.032 A 
ATOM      7  C13 <0> d  11     -13.931   2.371 -18.105  0.00  0.00     0.032 A 
ATOM      8  C14 <0> d  11     -12.802   1.579 -17.878  0.00  0.00     0.052 A 
ATOM      9  C15 <0> d  11     -11.703   2.131 -17.240  0.00  0.00     0.031 A 
ATOM     10  C16 <0> d  11     -11.729   3.454 -16.837  0.00  0.00     0.002 A 
ATOM     11  C17 <0> d  11     -12.848   4.234 -17.064  0.00  0.00     0.002 A 
ATOM     12  C18 <0> d  11     -13.953   3.692 -17.700  0.00  0.00     0.021 A 
ATOM     13  N1  <0> d  11     -12.783   0.241 -18.290  0.00  0.00    -0.344 N 
ATOM     14  S1  <0> d  11     -15.325   1.653 -18.918  0.00  0.00    -0.086 SA
ENDROOT
BRANCH  13  15
ATOM     15  C6  <0> d  11     -12.119  -0.754 -17.444  0.00  0.00     0.136 C 
BRANCH  15  16
ATOM     16  C4  <0> d  11     -13.170  -1.667 -16.810  0.00  0.00     0.031 C 
ATOM     17  C3  <0> d  11     -12.496  -2.884 -16.124  0.00  0.00     0.035 C 
ATOM     18  C2  <0> d  11     -13.543  -3.253 -15.043  0.00  0.00     0.234 C 
ATOM     19  N2  <0> d  11     -14.054  -1.951 -14.570  0.00  0.00    -0.074 N 
ATOM     20  C1  <0> d  11     -15.491  -2.067 -14.209  0.00  0.00     0.269 C 
ATOM     21  C5  <0> d  11     -13.876  -0.954 -15.638  0.00  0.00     0.240 C 
ATOM     22  H21 <0> d  11     -13.523  -1.658 -13.741  0.00  0.00     0.279 HD
ENDBRANCH  15  16
ENDBRANCH  13  15
TORSDOF 2
ENDMDL
