REMARK INTER + INTRA:          -9.556
REMARK INTER:                  -8.920
REMARK INTRA:                  -0.636
REMARK UNBOUND:                -0.595
REMARK  3 active torsions:
REMARK  status: ('A' for Active; 'I' for Inactive)
REMARK    1  A    between atoms: C4_4  and  C7_7 
REMARK    2  A    between atoms: C14_14  and  C16_16 
REMARK    3  A    between atoms: C16_16  and  C17_17 
ROOT
ATOM      1  C7  <0> d  11     -14.470   2.812 -16.511  0.00  0.00     0.090 A 
ATOM      2  C8  <0> d  11     -13.588   3.831 -16.692  0.00  0.00     0.093 A 
ATOM      3  C9  <0> d  11     -12.284   3.548 -17.164  0.00  0.00     0.187 A 
ATOM      4  C10 <0> d  11     -11.956   2.137 -17.447  0.00  0.00     0.048 A 
ATOM      5  C11 <0> d  11     -10.699   1.766 -17.919  0.00  0.00     0.018 A 
ATOM      6  C12 <0> d  11     -10.432   0.438 -18.171  0.00  0.00     0.002 A 
ATOM      7  C13 <0> d  11     -11.408  -0.525 -17.956  0.00  0.00     0.010 A 
ATOM      8  C14 <0> d  11     -12.656  -0.170 -17.491  0.00  0.00    -0.013 A 
ATOM      9  C15 <0> d  11     -12.945   1.165 -17.230  0.00  0.00     0.097 A 
ATOM     10  O1  <0> d  11     -11.465   4.436 -17.333  0.00  0.00    -0.287 OA
ATOM     11  O2  <0> d  11     -14.160   1.533 -16.773  0.00  0.00    -0.308 OA
ENDROOT
BRANCH   1  12
ATOM     12  C4  <0> d  11     -15.824   3.125 -16.013  0.00  0.00    -0.002 A 
ATOM     13  C3  <0> d  11     -16.919   2.362 -16.426  0.00  0.00     0.014 A 
ATOM     14  C2  <0> d  11     -18.180   2.661 -15.956  0.00  0.00     0.001 A 
ATOM     15  C1  <0> d  11     -18.365   3.713 -15.078  0.00  0.00     0.000 A 
ATOM     16  C6  <0> d  11     -17.285   4.474 -14.664  0.00  0.00     0.001 A 
ATOM     17  C5  <0> d  11     -16.017   4.183 -15.121  0.00  0.00     0.014 A 
ENDBRANCH   1  12
BRANCH   8  18
ATOM     18  C16 <0> d  11     -13.706  -1.227 -17.265  0.00  0.00     0.154 C 
BRANCH  18  19
ATOM     19  C17 <0> d  11     -13.489  -1.870 -15.919  0.00  0.00     0.177 C 
ATOM     20  O3  <0> d  11     -13.988  -1.386 -14.931  0.00  0.00    -0.648 OA
ATOM     21  O4  <0> d  11     -12.743  -2.980 -15.818  0.00  0.00    -0.648 OA
ENDBRANCH  18  19
ENDBRANCH   8  18
TORSDOF 3
ENDMDL
