REMARK INTER + INTRA:         -11.591
REMARK INTER:                 -10.568
REMARK INTRA:                  -1.023
REMARK UNBOUND:                -1.249
REMARK  4 active torsions:
REMARK  status: ('A' for Active; 'I' for Inactive)
REMARK    1  A    between atoms: C4_4  and  N1_25 
REMARK    2  A    between atoms: C8_8  and  C16_16 
REMARK    3  A    between atoms: C9_9  and  C10_10 
REMARK    4  A    between atoms: C16_16  and  C17_17 
ROOT
ATOM      1  C7  <0> d  11     -13.697   0.568 -17.877  0.00  0.00     0.271 A 
ATOM      2  C8  <0> d  11     -14.502   1.709 -17.684  0.00  0.00     0.044 A 
ATOM      3  C9  <0> d  11     -15.176   1.554 -16.509  0.00  0.00     0.070 A 
ATOM      4  H1  <0> d  11     -15.146  -0.032 -15.137  0.00  0.00     0.187 HD
ATOM      5  N1  <0> d  11     -13.893  -0.261 -16.833  0.00  0.00    -0.252 N 
ATOM      6  N2  <0> d  11     -14.819   0.340 -15.970  0.00  0.00    -0.294 N 
ATOM      7  O1  <0> d  11     -12.955   0.367 -18.823  0.00  0.00    -0.266 OA
ENDROOT
BRANCH   5   8
ATOM      8  C4  <0> d  11     -13.251  -1.563 -16.635  0.00  0.00     0.115 C 
ATOM      9  C3  <0> d  11     -13.712  -2.164 -15.304  0.00  0.00     0.055 C 
ATOM     10  C2  <0> d  11     -13.086  -3.550 -15.132  0.00  0.00     0.236 C 
ATOM     11  N3  <0> d  11     -13.524  -4.416 -16.248  0.00  0.00    -0.075 N 
ATOM     12  C1  <0> d  11     -13.025  -5.792 -16.043  0.00  0.00     0.269 C 
ATOM     13  C6  <0> d  11     -13.022  -3.883 -17.532  0.00  0.00     0.236 C 
ATOM     14  H26 <0> d  11     -14.551  -4.433 -16.274  0.00  0.00     0.279 HD
ATOM     15  C5  <0> d  11     -13.645  -2.506 -17.775  0.00  0.00     0.055 C 
ENDBRANCH   5   8
BRANCH   3  16
ATOM     16  C10 <0> d  11     -16.128   2.519 -15.920  0.00  0.00    -0.007 A 
ATOM     17  C15 <0> d  11     -17.503   2.321 -16.057  0.00  0.00     0.014 A 
ATOM     18  C14 <0> d  11     -18.385   3.226 -15.504  0.00  0.00     0.001 A 
ATOM     19  C13 <0> d  11     -17.909   4.329 -14.818  0.00  0.00     0.000 A 
ATOM     20  C12 <0> d  11     -16.548   4.532 -14.678  0.00  0.00     0.001 A 
ATOM     21  C11 <0> d  11     -15.655   3.631 -15.221  0.00  0.00     0.014 A 
ENDBRANCH   3  16
BRANCH   2  22
ATOM     22  C16 <0> d  11     -14.597   2.894 -18.610  0.00  0.00     0.085 C 
BRANCH  22  23
ATOM     23  C17 <0> d  11     -13.569   3.923 -18.215  0.00  0.00    -0.054 A 
ATOM     24  C22 <0> d  11     -13.594   5.181 -18.787  0.00  0.00     0.007 A 
ATOM     25  C21 <0> d  11     -12.652   6.125 -18.424  0.00  0.00     0.001 A 
ATOM     26  C20 <0> d  11     -11.686   5.811 -17.488  0.00  0.00     0.000 A 
ATOM     27  C19 <0> d  11     -11.663   4.554 -16.911  0.00  0.00     0.001 A 
ATOM     28  C18 <0> d  11     -12.602   3.609 -17.278  0.00  0.00     0.007 A 
ENDBRANCH  22  23
ENDBRANCH   2  22
TORSDOF 4
ENDMDL
