REMARK INTER + INTRA:          -5.826
REMARK INTER:                  -5.714
REMARK INTRA:                  -0.113
REMARK UNBOUND:                -0.112
REMARK  3 active torsions:
REMARK  status: ('A' for Active; 'I' for Inactive)
REMARK    1  A    between atoms: C3_3  and  S1_15 
REMARK    2  A    between atoms: C6_6  and  C7_7 
REMARK    3  A    between atoms: S1_15  and  N1_10 
ROOT
ATOM      1  C1  <0> d  11     -17.011   2.732 -17.534  0.00  0.00     0.020 A 
ATOM      2  C2  <0> d  11     -15.795   2.766 -18.185  0.00  0.00     0.026 A 
ATOM      3  C3  <0> d  11     -14.674   3.254 -17.539  0.00  0.00     0.079 A 
ATOM      4  C4  <0> d  11     -14.763   3.715 -16.237  0.00  0.00     0.026 A 
ATOM      5  C5  <0> d  11     -15.973   3.691 -15.575  0.00  0.00     0.020 A 
ATOM      6  C6  <0> d  11     -17.109   3.201 -16.222  0.00  0.00     0.040 A 
ENDROOT
BRANCH   3   7
ATOM      7  S1  <0> d  11     -13.124   3.288 -18.377  0.00  0.00     0.256 S 
ATOM      8  O2  <0> d  11     -12.786   1.937 -18.659  0.00  0.00    -0.201 OA
ATOM      9  O3  <0> d  11     -13.232   4.274 -19.394  0.00  0.00    -0.201 OA
BRANCH   7  10
ATOM     10  N1  <0> d  11     -11.997   3.842 -17.298  0.00  0.00    -0.324 N 
ATOM     11  H5  <0> d  11     -11.140   4.167 -17.616  0.00  0.00     0.169 HD
ATOM     12  H6  <0> d  11     -12.194   3.844 -16.348  0.00  0.00     0.169 HD
ENDBRANCH   7  10
ENDBRANCH   3   7
BRANCH   6  13
ATOM     13  C7  <0> d  11     -18.409   3.173 -15.519  0.00  0.00     0.209 C 
ATOM     14  O1  <0> d  11     -18.529   3.726 -14.445  0.00  0.00    -0.644 OA
ATOM     15  O4  <0> d  11     -19.460   2.538 -16.073  0.00  0.00    -0.644 OA
ENDBRANCH   6  13
TORSDOF 3
ENDMDL
