REMARK INTER + INTRA:          -7.791
REMARK INTER:                  -7.301
REMARK INTRA:                  -0.490
REMARK UNBOUND:                -0.490
REMARK  2 active torsions:
REMARK  status: ('A' for Active; 'I' for Inactive)
REMARK    1  A    between atoms: C4_4  and  C6_6 
REMARK    2  A    between atoms: C6_6  and  N1_20 
ROOT
ATOM      1  C7  <0> d  11     -13.250   1.655 -17.807  0.00  0.00     0.052 A 
ATOM      2  C8  <0> d  11     -12.473   2.580 -18.486  0.00  0.00     0.031 A 
ATOM      3  C9  <0> d  11     -12.575   3.926 -18.183  0.00  0.00     0.002 A 
ATOM      4  C10 <0> d  11     -13.448   4.358 -17.203  0.00  0.00     0.002 A 
ATOM      5  C11 <0> d  11     -14.230   3.443 -16.517  0.00  0.00     0.021 A 
ATOM      6  C12 <0> d  11     -14.133   2.098 -16.818  0.00  0.00     0.032 A 
ATOM      7  C13 <0> d  11     -14.109  -0.541 -16.040  0.00  0.00     0.032 A 
ATOM      8  C14 <0> d  11     -13.228  -0.691 -17.115  0.00  0.00     0.052 A 
ATOM      9  C15 <0> d  11     -12.433  -1.823 -17.187  0.00  0.00     0.031 A 
ATOM     10  C16 <0> d  11     -12.515  -2.791 -16.202  0.00  0.00     0.002 A 
ATOM     11  C17 <0> d  11     -13.388  -2.638 -15.140  0.00  0.00     0.002 A 
ATOM     12  C18 <0> d  11     -14.187  -1.510 -15.058  0.00  0.00     0.021 A 
ATOM     13  N1  <0> d  11     -13.150   0.293 -18.107  0.00  0.00    -0.344 N 
ATOM     14  S1  <0> d  11     -15.116   0.908 -15.962  0.00  0.00    -0.086 SA
ENDROOT
BRANCH  13  15
ATOM     15  C6  <0> d  11     -12.956  -0.117 -19.500  0.00  0.00     0.136 C 
BRANCH  15  16
ATOM     16  C4  <0> d  11     -14.308  -0.475 -20.120  0.00  0.00     0.031 C 
ATOM     17  C3  <0> d  11     -15.158   0.802 -20.355  0.00  0.00     0.035 C 
ATOM     18  C2  <0> d  11     -16.074   0.356 -21.522  0.00  0.00     0.234 C 
ATOM     19  N2  <0> d  11     -15.203  -0.477 -22.374  0.00  0.00    -0.074 N 
ATOM     20  C1  <0> d  11     -15.993  -1.572 -22.996  0.00  0.00     0.269 C 
ATOM     21  C5  <0> d  11     -14.123  -1.036 -21.546  0.00  0.00     0.240 C 
ATOM     22  H21 <0> d  11     -14.795   0.105 -23.116  0.00  0.00     0.279 HD
ENDBRANCH  15  16
ENDBRANCH  13  15
TORSDOF 2
ENDMDL
