REMARK INTER + INTRA:         -11.453
REMARK INTER:                 -10.351
REMARK INTRA:                  -1.102
REMARK UNBOUND:                -0.972
REMARK  4 active torsions:
REMARK  status: ('A' for Active; 'I' for Inactive)
REMARK    1  A    between atoms: C4_4  and  N1_25 
REMARK    2  A    between atoms: C8_8  and  C16_16 
REMARK    3  A    between atoms: C9_9  and  C10_10 
REMARK    4  A    between atoms: C16_16  and  C17_17 
ROOT
ATOM      1  C7  <0> d  11     -15.834   0.785 -17.943  0.00  0.00     0.271 A 
ATOM      2  C8  <0> d  11     -14.659   1.480 -17.591  0.00  0.00     0.044 A 
ATOM      3  C9  <0> d  11     -14.726   2.725 -18.141  0.00  0.00     0.070 A 
ATOM      4  H1  <0> d  11     -16.220   3.596 -19.328  0.00  0.00     0.187 HD
ATOM      5  N1  <0> d  11     -16.591   1.605 -18.698  0.00  0.00    -0.252 N 
ATOM      6  N2  <0> d  11     -15.910   2.821 -18.835  0.00  0.00    -0.294 N 
ATOM      7  O1  <0> d  11     -16.115  -0.356 -17.619  0.00  0.00    -0.266 OA
ENDROOT
BRANCH   5   8
ATOM      8  C4  <0> d  11     -17.898   1.280 -19.277  0.00  0.00     0.115 C 
ATOM      9  C3  <0> d  11     -18.935   2.301 -18.805  0.00  0.00     0.055 C 
ATOM     10  C2  <0> d  11     -20.283   1.992 -19.460  0.00  0.00     0.236 C 
ATOM     11  N3  <0> d  11     -20.134   2.076 -20.928  0.00  0.00    -0.075 N 
ATOM     12  C1  <0> d  11     -21.447   1.893 -21.581  0.00  0.00     0.269 C 
ATOM     13  C6  <0> d  11     -19.187   1.043 -21.401  0.00  0.00     0.236 C 
ATOM     14  H26 <0> d  11     -19.766   3.003 -21.173  0.00  0.00     0.279 HD
ATOM     15  C5  <0> d  11     -17.807   1.325 -20.805  0.00  0.00     0.055 C 
ENDBRANCH   5   8
BRANCH   3  16
ATOM     16  C10 <0> d  11     -13.704   3.785 -18.017  0.00  0.00    -0.007 A 
ATOM     17  C15 <0> d  11     -13.408   4.606 -19.107  0.00  0.00     0.014 A 
ATOM     18  C14 <0> d  11     -12.453   5.594 -18.984  0.00  0.00     0.001 A 
ATOM     19  C13 <0> d  11     -11.788   5.771 -17.783  0.00  0.00     0.000 A 
ATOM     20  C12 <0> d  11     -12.076   4.962 -16.698  0.00  0.00     0.001 A 
ATOM     21  C11 <0> d  11     -13.034   3.974 -16.807  0.00  0.00     0.014 A 
ENDBRANCH   3  16
BRANCH   2  22
ATOM     22  C16 <0> d  11     -13.529   0.942 -16.751  0.00  0.00     0.085 C 
BRANCH  22  23
ATOM     23  C17 <0> d  11     -12.453   0.392 -17.651  0.00  0.00    -0.054 A 
ATOM     24  C22 <0> d  11     -12.659  -0.790 -18.334  0.00  0.00     0.007 A 
ATOM     25  C21 <0> d  11     -11.672  -1.294 -19.160  0.00  0.00     0.001 A 
ATOM     26  C20 <0> d  11     -10.477  -0.613 -19.302  0.00  0.00     0.000 A 
ATOM     27  C19 <0> d  11     -10.271   0.571 -18.622  0.00  0.00     0.001 A 
ATOM     28  C18 <0> d  11     -11.257   1.072 -17.792  0.00  0.00     0.007 A 
ENDBRANCH  22  23
ENDBRANCH   2  22
TORSDOF 4
ENDMDL
