REMARK INTER + INTRA:          -9.010
REMARK INTER:                  -8.367
REMARK INTRA:                  -0.643
REMARK UNBOUND:                -0.408
REMARK  3 active torsions:
REMARK  status: ('A' for Active; 'I' for Inactive)
REMARK    1  A    between atoms: C4_4  and  C7_7 
REMARK    2  A    between atoms: C14_14  and  C16_16 
REMARK    3  A    between atoms: C16_16  and  C17_17 
ROOT
ATOM      1  C7  <0> d  11     -15.178   0.515 -19.980  0.00  0.00     0.090 A 
ATOM      2  C8  <0> d  11     -14.713  -0.560 -20.672  0.00  0.00     0.093 A 
ATOM      3  C9  <0> d  11     -13.365  -0.960 -20.515  0.00  0.00     0.187 A 
ATOM      4  C10 <0> d  11     -12.529  -0.176 -19.584  0.00  0.00     0.048 A 
ATOM      5  C11 <0> d  11     -11.191  -0.499 -19.364  0.00  0.00     0.018 A 
ATOM      6  C12 <0> d  11     -10.444   0.258 -18.488  0.00  0.00     0.002 A 
ATOM      7  C13 <0> d  11     -11.018   1.335 -17.829  0.00  0.00     0.010 A 
ATOM      8  C14 <0> d  11     -12.341   1.664 -18.037  0.00  0.00    -0.013 A 
ATOM      9  C15 <0> d  11     -13.112   0.913 -18.917  0.00  0.00     0.097 A 
ATOM     10  O1  <0> d  11     -12.912  -1.916 -21.122  0.00  0.00    -0.287 OA
ATOM     11  O2  <0> d  11     -14.407   1.219 -19.137  0.00  0.00    -0.308 OA
ENDROOT
BRANCH   1  12
ATOM     12  C4  <0> d  11     -16.586   0.921 -20.160  0.00  0.00    -0.002 A 
ATOM     13  C3  <0> d  11     -17.227   1.684 -19.182  0.00  0.00     0.014 A 
ATOM     14  C2  <0> d  11     -18.543   2.059 -19.357  0.00  0.00     0.001 A 
ATOM     15  C1  <0> d  11     -19.228   1.680 -20.499  0.00  0.00     0.000 A 
ATOM     16  C6  <0> d  11     -18.599   0.924 -21.472  0.00  0.00     0.001 A 
ATOM     17  C5  <0> d  11     -17.281   0.547 -21.312  0.00  0.00     0.014 A 
ENDBRANCH   1  12
BRANCH   8  18
ATOM     18  C16 <0> d  11     -12.951   2.836 -17.312  0.00  0.00     0.154 C 
BRANCH  18  19
ATOM     19  C17 <0> d  11     -12.516   4.118 -17.974  0.00  0.00     0.177 C 
ATOM     20  O3  <0> d  11     -11.877   4.934 -17.351  0.00  0.00    -0.648 OA
ATOM     21  O4  <0> d  11     -12.838   4.354 -19.256  0.00  0.00    -0.648 OA
ENDBRANCH  18  19
ENDBRANCH   8  18
TORSDOF 3
ENDMDL
