REMARK INTER + INTRA:          -8.190
REMARK INTER:                  -7.666
REMARK INTRA:                  -0.524
REMARK UNBOUND:                -0.512
REMARK  2 active torsions:
REMARK  status: ('A' for Active; 'I' for Inactive)
REMARK    1  A    between atoms: C4_4  and  C6_6 
REMARK    2  A    between atoms: C6_6  and  N1_20 
ROOT
ATOM      1  C7  <0> d  11     -13.522   0.000 -19.503  0.00  0.00     0.052 A 
ATOM      2  C8  <0> d  11     -13.008  -0.957 -20.362  0.00  0.00     0.031 A 
ATOM      3  C9  <0> d  11     -13.690  -1.288 -21.519  0.00  0.00     0.002 A 
ATOM      4  C10 <0> d  11     -14.886  -0.669 -21.827  0.00  0.00     0.002 A 
ATOM      5  C11 <0> d  11     -15.412   0.289 -20.975  0.00  0.00     0.021 A 
ATOM      6  C12 <0> d  11     -14.734   0.622 -19.818  0.00  0.00     0.032 A 
ATOM      7  C13 <0> d  11     -13.913   2.485 -17.968  0.00  0.00     0.032 A 
ATOM      8  C14 <0> d  11     -12.792   1.657 -17.858  0.00  0.00     0.052 A 
ATOM      9  C15 <0> d  11     -11.637   2.153 -17.275  0.00  0.00     0.031 A 
ATOM     10  C16 <0> d  11     -11.601   3.455 -16.810  0.00  0.00     0.002 A 
ATOM     11  C17 <0> d  11     -12.712   4.270 -16.921  0.00  0.00     0.002 A 
ATOM     12  C18 <0> d  11     -13.872   3.785 -17.502  0.00  0.00     0.021 A 
ATOM     13  N1  <0> d  11     -12.836   0.341 -18.333  0.00  0.00    -0.344 N 
ATOM     14  S1  <0> d  11     -15.378   1.839 -18.713  0.00  0.00    -0.086 SA
ENDROOT
BRANCH  13  15
ATOM     15  C6  <0> d  11     -12.142  -0.708 -17.582  0.00  0.00     0.136 C 
BRANCH  15  16
ATOM     16  C4  <0> d  11     -13.170  -1.622 -16.915  0.00  0.00     0.031 C 
ATOM     17  C3  <0> d  11     -12.477  -2.849 -16.267  0.00  0.00     0.035 C 
ATOM     18  C2  <0> d  11     -13.479  -3.222 -15.147  0.00  0.00     0.234 C 
ATOM     19  N2  <0> d  11     -13.964  -1.921 -14.642  0.00  0.00    -0.074 N 
ATOM     20  C1  <0> d  11     -15.387  -2.032 -14.224  0.00  0.00     0.269 C 
ATOM     21  C5  <0> d  11     -13.825  -0.916 -15.708  0.00  0.00     0.240 C 
ATOM     22  H21 <0> d  11     -13.399  -1.639 -13.833  0.00  0.00     0.279 HD
ENDBRANCH  15  16
ENDBRANCH  13  15
TORSDOF 2
ENDMDL
