REMARK INTER + INTRA:          -6.139
REMARK INTER:                  -6.034
REMARK INTRA:                  -0.105
REMARK UNBOUND:                -0.112
REMARK  3 active torsions:
REMARK  status: ('A' for Active; 'I' for Inactive)
REMARK    1  A    between atoms: C3_3  and  S1_15 
REMARK    2  A    between atoms: C6_6  and  C7_7 
REMARK    3  A    between atoms: S1_15  and  N1_10 
ROOT
ATOM      1  C1  <0> d  11     -17.367   4.297 -14.737  0.00  0.00     0.020 A 
ATOM      2  C2  <0> d  11     -16.080   4.071 -15.183  0.00  0.00     0.026 A 
ATOM      3  C3  <0> d  11     -15.828   3.061 -16.092  0.00  0.00     0.079 A 
ATOM      4  C4  <0> d  11     -16.861   2.266 -16.559  0.00  0.00     0.026 A 
ATOM      5  C5  <0> d  11     -18.151   2.477 -16.118  0.00  0.00     0.020 A 
ATOM      6  C6  <0> d  11     -18.412   3.495 -15.199  0.00  0.00     0.040 A 
ENDROOT
BRANCH   3   7
ATOM      7  S1  <0> d  11     -14.183   2.784 -16.662  0.00  0.00     0.256 S 
ATOM      8  O2  <0> d  11     -14.284   1.936 -17.797  0.00  0.00    -0.201 OA
ATOM      9  O3  <0> d  11     -13.552   4.057 -16.715  0.00  0.00    -0.201 OA
BRANCH   7  10
ATOM     10  N1  <0> d  11     -13.400   1.916 -15.490  0.00  0.00    -0.324 N 
ATOM     11  H5  <0> d  11     -12.843   1.161 -15.738  0.00  0.00     0.169 HD
ATOM     12  H6  <0> d  11     -13.496   2.162 -14.557  0.00  0.00     0.169 HD
ENDBRANCH   7  10
ENDBRANCH   3   7
BRANCH   6  13
ATOM     13  C7  <0> d  11     -19.792   3.726 -14.722  0.00  0.00     0.209 C 
ATOM     14  O1  <0> d  11     -20.669   4.004 -15.514  0.00  0.00    -0.644 OA
ATOM     15  O4  <0> d  11     -20.077   3.625 -13.409  0.00  0.00    -0.644 OA
ENDBRANCH   6  13
TORSDOF 3
ENDMDL
