MODEL 1
REMARK VINA RESULT:    -5.259      0.000      0.000
REMARK INTER + INTRA:          -6.139
REMARK INTER:                  -6.034
REMARK INTRA:                  -0.105
REMARK UNBOUND:                -0.112
REMARK  3 active torsions:
REMARK  status: ('A' for Active; 'I' for Inactive)
REMARK    1  A    between atoms: C3_3  and  S1_15 
REMARK    2  A    between atoms: C6_6  and  C7_7 
REMARK    3  A    between atoms: S1_15  and  N1_10 
ROOT
ATOM      1  C1  <0> d  11     -17.367   4.297 -14.737  0.00  0.00     0.020 A 
ATOM      2  C2  <0> d  11     -16.080   4.071 -15.183  0.00  0.00     0.026 A 
ATOM      3  C3  <0> d  11     -15.828   3.061 -16.092  0.00  0.00     0.079 A 
ATOM      4  C4  <0> d  11     -16.861   2.266 -16.559  0.00  0.00     0.026 A 
ATOM      5  C5  <0> d  11     -18.151   2.477 -16.118  0.00  0.00     0.020 A 
ATOM      6  C6  <0> d  11     -18.412   3.495 -15.199  0.00  0.00     0.040 A 
ENDROOT
BRANCH   3   7
ATOM      7  S1  <0> d  11     -14.183   2.784 -16.662  0.00  0.00     0.256 S 
ATOM      8  O2  <0> d  11     -14.284   1.936 -17.797  0.00  0.00    -0.201 OA
ATOM      9  O3  <0> d  11     -13.552   4.057 -16.715  0.00  0.00    -0.201 OA
BRANCH   7  10
ATOM     10  N1  <0> d  11     -13.400   1.916 -15.490  0.00  0.00    -0.324 N 
ATOM     11  H5  <0> d  11     -12.843   1.161 -15.738  0.00  0.00     0.169 HD
ATOM     12  H6  <0> d  11     -13.496   2.162 -14.557  0.00  0.00     0.169 HD
ENDBRANCH   7  10
ENDBRANCH   3   7
BRANCH   6  13
ATOM     13  C7  <0> d  11     -19.792   3.726 -14.722  0.00  0.00     0.209 C 
ATOM     14  O1  <0> d  11     -20.669   4.004 -15.514  0.00  0.00    -0.644 OA
ATOM     15  O4  <0> d  11     -20.077   3.625 -13.409  0.00  0.00    -0.644 OA
ENDBRANCH   6  13
TORSDOF 3
ENDMDL
MODEL 2
REMARK VINA RESULT:    -5.099      2.718      5.393
REMARK INTER + INTRA:          -5.956
REMARK INTER:                  -5.854
REMARK INTRA:                  -0.101
REMARK UNBOUND:                -0.112
REMARK  3 active torsions:
REMARK  status: ('A' for Active; 'I' for Inactive)
REMARK    1  A    between atoms: C3_3  and  S1_15 
REMARK    2  A    between atoms: C6_6  and  C7_7 
REMARK    3  A    between atoms: S1_15  and  N1_10 
ROOT
ATOM      1  C1  <0> d  11     -16.628   2.735 -16.914  0.00  0.00     0.020 A 
ATOM      2  C2  <0> d  11     -17.934   2.668 -16.475  0.00  0.00     0.026 A 
ATOM      3  C3  <0> d  11     -18.332   3.392 -15.366  0.00  0.00     0.079 A 
ATOM      4  C4  <0> d  11     -17.424   4.185 -14.686  0.00  0.00     0.026 A 
ATOM      5  C5  <0> d  11     -16.114   4.258 -15.111  0.00  0.00     0.020 A 
ATOM      6  C6  <0> d  11     -15.705   3.529 -16.230  0.00  0.00     0.040 A 
ENDROOT
BRANCH   3   7
ATOM      7  S1  <0> d  11     -20.004   3.306 -14.816  0.00  0.00     0.256 S 
ATOM      8  O2  <0> d  11     -20.005   3.715 -13.455  0.00  0.00    -0.201 OA
ATOM      9  O3  <0> d  11     -20.792   3.952 -15.806  0.00  0.00    -0.201 OA
BRANCH   7  10
ATOM     10  N1  <0> d  11     -20.442   1.709 -14.830  0.00  0.00    -0.324 N 
ATOM     11  H5  <0> d  11     -21.242   1.422 -14.363  0.00  0.00     0.169 HD
ATOM     12  H6  <0> d  11     -19.899   1.062 -15.306  0.00  0.00     0.169 HD
ENDBRANCH   7  10
ENDBRANCH   3   7
BRANCH   6  13
ATOM     13  C7  <0> d  11     -14.303   3.602 -16.691  0.00  0.00     0.209 C 
ATOM     14  O1  <0> d  11     -13.963   4.475 -17.463  0.00  0.00    -0.644 OA
ATOM     15  O4  <0> d  11     -13.401   2.702 -16.251  0.00  0.00    -0.644 OA
ENDBRANCH   6  13
TORSDOF 3
ENDMDL
MODEL 3
REMARK VINA RESULT:    -4.986      1.815      2.504
REMARK INTER + INTRA:          -5.826
REMARK INTER:                  -5.714
REMARK INTRA:                  -0.113
REMARK UNBOUND:                -0.112
REMARK  3 active torsions:
REMARK  status: ('A' for Active; 'I' for Inactive)
REMARK    1  A    between atoms: C3_3  and  S1_15 
REMARK    2  A    between atoms: C6_6  and  C7_7 
REMARK    3  A    between atoms: S1_15  and  N1_10 
ROOT
ATOM      1  C1  <0> d  11     -17.011   2.732 -17.534  0.00  0.00     0.020 A 
ATOM      2  C2  <0> d  11     -15.795   2.766 -18.185  0.00  0.00     0.026 A 
ATOM      3  C3  <0> d  11     -14.674   3.254 -17.539  0.00  0.00     0.079 A 
ATOM      4  C4  <0> d  11     -14.763   3.715 -16.237  0.00  0.00     0.026 A 
ATOM      5  C5  <0> d  11     -15.973   3.691 -15.575  0.00  0.00     0.020 A 
ATOM      6  C6  <0> d  11     -17.109   3.201 -16.222  0.00  0.00     0.040 A 
ENDROOT
BRANCH   3   7
ATOM      7  S1  <0> d  11     -13.124   3.288 -18.377  0.00  0.00     0.256 S 
ATOM      8  O2  <0> d  11     -12.786   1.937 -18.659  0.00  0.00    -0.201 OA
ATOM      9  O3  <0> d  11     -13.232   4.274 -19.394  0.00  0.00    -0.201 OA
BRANCH   7  10
ATOM     10  N1  <0> d  11     -11.997   3.842 -17.298  0.00  0.00    -0.324 N 
ATOM     11  H5  <0> d  11     -11.140   4.167 -17.616  0.00  0.00     0.169 HD
ATOM     12  H6  <0> d  11     -12.194   3.844 -16.348  0.00  0.00     0.169 HD
ENDBRANCH   7  10
ENDBRANCH   3   7
BRANCH   6  13
ATOM     13  C7  <0> d  11     -18.409   3.173 -15.519  0.00  0.00     0.209 C 
ATOM     14  O1  <0> d  11     -18.529   3.726 -14.445  0.00  0.00    -0.644 OA
ATOM     15  O4  <0> d  11     -19.460   2.538 -16.073  0.00  0.00    -0.644 OA
ENDBRANCH   6  13
TORSDOF 3
ENDMDL
MODEL 4
REMARK VINA RESULT:    -4.768      4.306      5.592
REMARK INTER + INTRA:          -5.577
REMARK INTER:                  -5.465
REMARK INTRA:                  -0.112
REMARK UNBOUND:                -0.112
REMARK  3 active torsions:
REMARK  status: ('A' for Active; 'I' for Inactive)
REMARK    1  A    between atoms: C3_3  and  S1_15 
REMARK    2  A    between atoms: C6_6  and  C7_7 
REMARK    3  A    between atoms: S1_15  and  N1_10 
ROOT
ATOM      1  C1  <0> d  11     -14.285   3.686 -17.461  0.00  0.00     0.020 A 
ATOM      2  C2  <0> d  11     -14.598   2.380 -17.143  0.00  0.00     0.026 A 
ATOM      3  C3  <0> d  11     -13.594   1.476 -16.852  0.00  0.00     0.079 A 
ATOM      4  C4  <0> d  11     -12.268   1.871 -16.881  0.00  0.00     0.026 A 
ATOM      5  C5  <0> d  11     -11.939   3.172 -17.202  0.00  0.00     0.020 A 
ATOM      6  C6  <0> d  11     -12.948   4.090 -17.498  0.00  0.00     0.040 A 
ENDROOT
BRANCH   3   7
ATOM      7  S1  <0> d  11     -14.004  -0.188 -16.440  0.00  0.00     0.256 S 
ATOM      8  O2  <0> d  11     -15.166  -0.516 -17.188  0.00  0.00    -0.201 OA
ATOM      9  O3  <0> d  11     -12.800  -0.938 -16.533  0.00  0.00    -0.201 OA
BRANCH   7  10
ATOM     10  N1  <0> d  11     -14.448  -0.201 -14.845  0.00  0.00    -0.324 N 
ATOM     11  H5  <0> d  11     -14.799  -1.013 -14.447  0.00  0.00     0.169 HD
ATOM     12  H6  <0> d  11     -14.357   0.602 -14.309  0.00  0.00     0.169 HD
ENDBRANCH   7  10
ENDBRANCH   3   7
BRANCH   6  13
ATOM     13  C7  <0> d  11     -12.604   5.485 -17.844  0.00  0.00     0.209 C 
ATOM     14  O1  <0> d  11     -13.353   6.140 -18.540  0.00  0.00    -0.644 OA
ATOM     15  O4  <0> d  11     -11.462   6.031 -17.383  0.00  0.00    -0.644 OA
ENDBRANCH   6  13
TORSDOF 3
ENDMDL
MODEL 5
REMARK VINA RESULT:    -4.645      5.305      6.801
REMARK INTER + INTRA:          -5.436
REMARK INTER:                  -5.328
REMARK INTRA:                  -0.108
REMARK UNBOUND:                -0.112
REMARK  3 active torsions:
REMARK  status: ('A' for Active; 'I' for Inactive)
REMARK    1  A    between atoms: C3_3  and  S1_15 
REMARK    2  A    between atoms: C6_6  and  C7_7 
REMARK    3  A    between atoms: S1_15  and  N1_10 
ROOT
ATOM      1  C1  <0> d  11     -11.470   0.064 -18.339  0.00  0.00     0.020 A 
ATOM      2  C2  <0> d  11     -11.588   1.433 -18.469  0.00  0.00     0.026 A 
ATOM      3  C3  <0> d  11     -12.523   2.123 -17.719  0.00  0.00     0.079 A 
ATOM      4  C4  <0> d  11     -13.348   1.448 -16.836  0.00  0.00     0.026 A 
ATOM      5  C5  <0> d  11     -13.244   0.080 -16.700  0.00  0.00     0.020 A 
ATOM      6  C6  <0> d  11     -12.304  -0.624 -17.455  0.00  0.00     0.040 A 
ENDROOT
BRANCH   3   7
ATOM      7  S1  <0> d  11     -12.662   3.872 -17.886  0.00  0.00     0.256 S 
ATOM      8  O2  <0> d  11     -11.654   4.440 -17.062  0.00  0.00    -0.201 OA
ATOM      9  O3  <0> d  11     -12.749   4.142 -19.279  0.00  0.00    -0.201 OA
BRANCH   7  10
ATOM     10  N1  <0> d  11     -14.115   4.312 -17.227  0.00  0.00    -0.324 N 
ATOM     11  H5  <0> d  11     -14.331   5.251 -17.112  0.00  0.00     0.169 HD
ATOM     12  H6  <0> d  11     -14.752   3.632 -16.957  0.00  0.00     0.169 HD
ENDBRANCH   7  10
ENDBRANCH   3   7
BRANCH   6  13
ATOM     13  C7  <0> d  11     -12.187  -2.091 -17.314  0.00  0.00     0.209 C 
ATOM     14  O1  <0> d  11     -12.272  -2.603 -16.216  0.00  0.00    -0.644 OA
ATOM     15  O4  <0> d  11     -11.992  -2.859 -18.404  0.00  0.00    -0.644 OA
ENDBRANCH   6  13
TORSDOF 3
ENDMDL
