REMARK INTER + INTRA:         -11.463
REMARK INTER:                 -10.214
REMARK INTRA:                  -1.249
REMARK UNBOUND:                -1.249
REMARK  4 active torsions:
REMARK  status: ('A' for Active; 'I' for Inactive)
REMARK    1  A    between atoms: C4_4  and  N1_25 
REMARK    2  A    between atoms: C8_8  and  C16_16 
REMARK    3  A    between atoms: C9_9  and  C10_10 
REMARK    4  A    between atoms: C16_16  and  C17_17 
ROOT
ATOM      1  C7  <0> d  11     -15.839   0.838 -17.838  0.00  0.00     0.271 A 
ATOM      2  C8  <0> d  11     -14.665   1.543 -17.506  0.00  0.00     0.044 A 
ATOM      3  C9  <0> d  11     -14.727   2.768 -18.101  0.00  0.00     0.070 A 
ATOM      4  H1  <0> d  11     -16.213   3.597 -19.327  0.00  0.00     0.187 HD
ATOM      5  N1  <0> d  11     -16.591   1.631 -18.627  0.00  0.00    -0.252 N 
ATOM      6  N2  <0> d  11     -15.907   2.840 -18.805  0.00  0.00    -0.294 N 
ATOM      7  O1  <0> d  11     -16.124  -0.289 -17.474  0.00  0.00    -0.266 OA
ENDROOT
BRANCH   5   8
ATOM      8  C4  <0> d  11     -17.895   1.287 -19.201  0.00  0.00     0.115 C 
ATOM      9  C3  <0> d  11     -18.953   2.267 -18.688  0.00  0.00     0.055 C 
ATOM     10  C2  <0> d  11     -20.300   1.942 -19.338  0.00  0.00     0.236 C 
ATOM     11  N3  <0> d  11     -20.170   2.070 -20.805  0.00  0.00    -0.075 N 
ATOM     12  C1  <0> d  11     -21.485   1.872 -21.448  0.00  0.00     0.269 C 
ATOM     13  C6  <0> d  11     -19.202   1.077 -21.318  0.00  0.00     0.236 C 
ATOM     14  H26 <0> d  11     -19.828   3.013 -21.027  0.00  0.00     0.279 HD
ATOM     15  C5  <0> d  11     -17.822   1.377 -20.728  0.00  0.00     0.055 C 
ENDBRANCH   5   8
BRANCH   3  16
ATOM     16  C10 <0> d  11     -13.703   3.830 -18.010  0.00  0.00    -0.007 A 
ATOM     17  C15 <0> d  11     -13.295   4.511 -19.159  0.00  0.00     0.014 A 
ATOM     18  C14 <0> d  11     -12.340   5.501 -19.066  0.00  0.00     0.001 A 
ATOM     19  C13 <0> d  11     -11.785   5.820 -17.839  0.00  0.00     0.000 A 
ATOM     20  C12 <0> d  11     -12.186   5.150 -16.696  0.00  0.00     0.001 A 
ATOM     21  C11 <0> d  11     -13.145   4.161 -16.775  0.00  0.00     0.014 A 
ENDBRANCH   3  16
BRANCH   2  22
ATOM     22  C16 <0> d  11     -13.541   1.035 -16.640  0.00  0.00     0.085 C 
BRANCH  22  23
ATOM     23  C17 <0> d  11     -12.453   0.465 -17.514  0.00  0.00    -0.054 A 
ATOM     24  C22 <0> d  11     -11.311   1.203 -17.767  0.00  0.00     0.007 A 
ATOM     25  C21 <0> d  11     -10.314   0.680 -18.568  0.00  0.00     0.001 A 
ATOM     26  C20 <0> d  11     -10.457  -0.581 -19.114  0.00  0.00     0.000 A 
ATOM     27  C19 <0> d  11     -11.596  -1.321 -18.858  0.00  0.00     0.001 A 
ATOM     28  C18 <0> d  11     -12.596  -0.797 -18.061  0.00  0.00     0.007 A 
ENDBRANCH  22  23
ENDBRANCH   2  22
TORSDOF 4
ENDMDL
