REMARK INTER + INTRA:         -11.365
REMARK INTER:                  -9.804
REMARK INTRA:                  -1.561
REMARK UNBOUND:                -1.249
REMARK  4 active torsions:
REMARK  status: ('A' for Active; 'I' for Inactive)
REMARK    1  A    between atoms: C4_4  and  N1_25 
REMARK    2  A    between atoms: C8_8  and  C16_16 
REMARK    3  A    between atoms: C9_9  and  C10_10 
REMARK    4  A    between atoms: C16_16  and  C17_17 
ROOT
ATOM      1  C7  <0> d  11     -16.459   2.383 -17.716  0.00  0.00     0.271 A 
ATOM      2  C8  <0> d  11     -15.099   2.175 -17.409  0.00  0.00     0.044 A 
ATOM      3  C9  <0> d  11     -14.619   1.217 -18.251  0.00  0.00     0.070 A 
ATOM      4  H1  <0> d  11     -15.595   0.143 -19.766  0.00  0.00     0.187 HD
ATOM      5  N1  <0> d  11     -16.789   1.555 -18.726  0.00  0.00    -0.252 N 
ATOM      6  N2  <0> d  11     -15.650   0.816 -19.070  0.00  0.00    -0.294 N 
ATOM      7  O1  <0> d  11     -17.204   3.174 -17.164  0.00  0.00    -0.266 OA
ENDROOT
BRANCH   5   8
ATOM      8  C4  <0> d  11     -18.108   1.446 -19.354  0.00  0.00     0.115 C 
ATOM      9  C3  <0> d  11     -17.941   1.231 -20.861  0.00  0.00     0.055 C 
ATOM     10  C2  <0> d  11     -19.319   1.056 -21.503  0.00  0.00     0.236 C 
ATOM     11  N3  <0> d  11     -19.983  -0.121 -20.901  0.00  0.00    -0.075 N 
ATOM     12  C1  <0> d  11     -21.268  -0.378 -21.584  0.00  0.00     0.269 C 
ATOM     13  C6  <0> d  11     -20.214   0.108 -19.460  0.00  0.00     0.236 C 
ATOM     14  H26 <0> d  11     -19.374  -0.940 -21.015  0.00  0.00     0.279 HD
ATOM     15  C5  <0> d  11     -18.862   0.255 -18.757  0.00  0.00     0.055 C 
ENDBRANCH   5   8
BRANCH   3  16
ATOM     16  C10 <0> d  11     -13.236   0.698 -18.278  0.00  0.00    -0.007 A 
ATOM     17  C15 <0> d  11     -12.912  -0.470 -17.585  0.00  0.00     0.014 A 
ATOM     18  C14 <0> d  11     -11.619  -0.949 -17.615  0.00  0.00     0.001 A 
ATOM     19  C13 <0> d  11     -10.644  -0.274 -18.327  0.00  0.00     0.000 A 
ATOM     20  C12 <0> d  11     -10.958   0.884 -19.017  0.00  0.00     0.001 A 
ATOM     21  C11 <0> d  11     -12.249   1.370 -19.000  0.00  0.00     0.014 A 
ENDBRANCH   3  16
BRANCH   2  22
ATOM     22  C16 <0> d  11     -14.312   2.890 -16.340  0.00  0.00     0.085 C 
BRANCH  22  23
ATOM     23  C17 <0> d  11     -13.521   4.011 -16.965  0.00  0.00    -0.054 A 
ATOM     24  C22 <0> d  11     -12.193   4.192 -16.627  0.00  0.00     0.007 A 
ATOM     25  C21 <0> d  11     -11.468   5.220 -17.201  0.00  0.00     0.001 A 
ATOM     26  C20 <0> d  11     -12.071   6.066 -18.112  0.00  0.00     0.000 A 
ATOM     27  C19 <0> d  11     -13.398   5.882 -18.454  0.00  0.00     0.001 A 
ATOM     28  C18 <0> d  11     -14.125   4.857 -17.877  0.00  0.00     0.007 A 
ENDBRANCH  22  23
ENDBRANCH   2  22
TORSDOF 4
ENDMDL
