REMARK INTER + INTRA:          -9.044
REMARK INTER:                  -8.637
REMARK INTRA:                  -0.408
REMARK UNBOUND:                -0.408
REMARK  3 active torsions:
REMARK  status: ('A' for Active; 'I' for Inactive)
REMARK    1  A    between atoms: C4_4  and  C7_7 
REMARK    2  A    between atoms: C14_14  and  C16_16 
REMARK    3  A    between atoms: C16_16  and  C17_17 
ROOT
ATOM      1  C7  <0> d  11     -15.268   1.815 -16.380  0.00  0.00     0.090 A 
ATOM      2  C8  <0> d  11     -15.366   0.478 -16.607  0.00  0.00     0.093 A 
ATOM      3  C9  <0> d  11     -14.250  -0.226 -17.119  0.00  0.00     0.187 A 
ATOM      4  C10 <0> d  11     -13.019   0.548 -17.373  0.00  0.00     0.048 A 
ATOM      5  C11 <0> d  11     -11.870  -0.061 -17.874  0.00  0.00     0.018 A 
ATOM      6  C12 <0> d  11     -10.741   0.696 -18.098  0.00  0.00     0.002 A 
ATOM      7  C13 <0> d  11     -10.746   2.057 -17.828  0.00  0.00     0.010 A 
ATOM      8  C14 <0> d  11     -11.876   2.671 -17.331  0.00  0.00    -0.013 A 
ATOM      9  C15 <0> d  11     -13.026   1.925 -17.099  0.00  0.00     0.097 A 
ATOM     10  O1  <0> d  11     -14.303  -1.424 -17.340  0.00  0.00    -0.287 OA
ATOM     11  O2  <0> d  11     -14.142   2.507 -16.615  0.00  0.00    -0.308 OA
ENDROOT
BRANCH   1  12
ATOM     12  C4  <0> d  11     -16.444   2.533 -15.850  0.00  0.00    -0.002 A 
ATOM     13  C3  <0> d  11     -16.284   3.761 -15.203  0.00  0.00     0.014 A 
ATOM     14  C2  <0> d  11     -17.388   4.426 -14.711  0.00  0.00     0.001 A 
ATOM     15  C1  <0> d  11     -18.652   3.879 -14.855  0.00  0.00     0.000 A 
ATOM     16  C6  <0> d  11     -18.817   2.664 -15.495  0.00  0.00     0.001 A 
ATOM     17  C5  <0> d  11     -17.722   1.990 -15.998  0.00  0.00     0.014 A 
ENDBRANCH   1  12
BRANCH   8  18
ATOM     18  C16 <0> d  11     -11.866   4.150 -17.041  0.00  0.00     0.154 C 
BRANCH  18  19
ATOM     19  C17 <0> d  11     -12.304   4.906 -18.269  0.00  0.00     0.177 C 
ATOM     20  O3  <0> d  11     -12.688   4.305 -19.244  0.00  0.00    -0.648 OA
ATOM     21  O4  <0> d  11     -12.268   6.248 -18.278  0.00  0.00    -0.648 OA
ENDBRANCH  18  19
ENDBRANCH   8  18
TORSDOF 3
ENDMDL
