REMARK INTER + INTRA:          -7.835
REMARK INTER:                  -7.213
REMARK INTRA:                  -0.622
REMARK UNBOUND:                -0.490
REMARK  2 active torsions:
REMARK  status: ('A' for Active; 'I' for Inactive)
REMARK    1  A    between atoms: C4_4  and  C6_6 
REMARK    2  A    between atoms: C6_6  and  N1_20 
ROOT
ATOM      1  C7  <0> d  11     -13.251   0.435 -18.076  0.00  0.00     0.052 A 
ATOM      2  C8  <0> d  11     -12.815  -0.879 -18.122  0.00  0.00     0.031 A 
ATOM      3  C9  <0> d  11     -11.482  -1.159 -18.363  0.00  0.00     0.002 A 
ATOM      4  C10 <0> d  11     -10.576  -0.134 -18.559  0.00  0.00     0.002 A 
ATOM      5  C11 <0> d  11     -11.000   1.185 -18.517  0.00  0.00     0.021 A 
ATOM      6  C12 <0> d  11     -12.331   1.468 -18.277  0.00  0.00     0.032 A 
ATOM      7  C13 <0> d  11     -14.284   3.026 -17.125  0.00  0.00     0.032 A 
ATOM      8  C14 <0> d  11     -14.987   1.820 -17.050  0.00  0.00     0.052 A 
ATOM      9  C15 <0> d  11     -16.074   1.720 -16.197  0.00  0.00     0.031 A 
ATOM     10  C16 <0> d  11     -16.453   2.807 -15.429  0.00  0.00     0.002 A 
ATOM     11  C17 <0> d  11     -15.754   3.997 -15.505  0.00  0.00     0.002 A 
ATOM     12  C18 <0> d  11     -14.666   4.108 -16.356  0.00  0.00     0.021 A 
ATOM     13  N1  <0> d  11     -14.597   0.725 -17.830  0.00  0.00    -0.344 N 
ATOM     14  S1  <0> d  11     -12.901   3.138 -18.218  0.00  0.00    -0.086 SA
ENDROOT
BRANCH  13  15
ATOM     15  C6  <0> d  11     -15.629  -0.143 -18.403  0.00  0.00     0.136 C 
BRANCH  15  16
ATOM     16  C4  <0> d  11     -16.253   0.541 -19.621  0.00  0.00     0.031 C 
ATOM     17  C3  <0> d  11     -15.996  -0.289 -20.906  0.00  0.00     0.035 C 
ATOM     18  C2  <0> d  11     -17.190   0.139 -21.797  0.00  0.00     0.234 C 
ATOM     19  N2  <0> d  11     -18.321   0.266 -20.857  0.00  0.00    -0.074 N 
ATOM     20  C1  <0> d  11     -19.227   1.361 -21.293  0.00  0.00     0.269 C 
ATOM     21  C5  <0> d  11     -17.792   0.549 -19.513  0.00  0.00     0.240 C 
ATOM     22  H21 <0> d  11     -18.847  -0.615 -20.836  0.00  0.00     0.279 HD
ENDBRANCH  15  16
ENDBRANCH  13  15
TORSDOF 2
ENDMDL
