REMARK INTER + INTRA:          -9.560
REMARK INTER:                  -8.924
REMARK INTRA:                  -0.635
REMARK UNBOUND:                -0.408
REMARK  3 active torsions:
REMARK  status: ('A' for Active; 'I' for Inactive)
REMARK    1  A    between atoms: C4_4  and  C7_7 
REMARK    2  A    between atoms: C14_14  and  C16_16 
REMARK    3  A    between atoms: C16_16  and  C17_17 
ROOT
ATOM      1  C7  <0> d  11     -14.455   2.822 -16.510  0.00  0.00     0.090 A 
ATOM      2  C8  <0> d  11     -13.560   3.830 -16.694  0.00  0.00     0.093 A 
ATOM      3  C9  <0> d  11     -12.261   3.530 -17.168  0.00  0.00     0.187 A 
ATOM      4  C10 <0> d  11     -11.952   2.114 -17.449  0.00  0.00     0.048 A 
ATOM      5  C11 <0> d  11     -10.700   1.726 -17.922  0.00  0.00     0.018 A 
ATOM      6  C12 <0> d  11     -10.450   0.394 -18.172  0.00  0.00     0.002 A 
ATOM      7  C13 <0> d  11     -11.437  -0.556 -17.954  0.00  0.00     0.010 A 
ATOM      8  C14 <0> d  11     -12.680  -0.184 -17.487  0.00  0.00    -0.013 A 
ATOM      9  C15 <0> d  11     -12.952   1.155 -17.229  0.00  0.00     0.097 A 
ATOM     10  O1  <0> d  11     -11.431   4.407 -17.340  0.00  0.00    -0.287 OA
ATOM     11  O2  <0> d  11     -14.161   1.539 -16.770  0.00  0.00    -0.308 OA
ENDROOT
BRANCH   1  12
ATOM     12  C4  <0> d  11     -15.804   3.154 -16.010  0.00  0.00    -0.002 A 
ATOM     13  C3  <0> d  11     -16.912   2.418 -16.439  0.00  0.00     0.014 A 
ATOM     14  C2  <0> d  11     -18.169   2.733 -15.967  0.00  0.00     0.001 A 
ATOM     15  C1  <0> d  11     -18.335   3.776 -15.072  0.00  0.00     0.000 A 
ATOM     16  C6  <0> d  11     -17.243   4.509 -14.644  0.00  0.00     0.001 A 
ATOM     17  C5  <0> d  11     -15.978   4.201 -15.103  0.00  0.00     0.014 A 
ENDBRANCH   1  12
BRANCH   8  18
ATOM     18  C16 <0> d  11     -13.743  -1.227 -17.257  0.00  0.00     0.154 C 
BRANCH  18  19
ATOM     19  C17 <0> d  11     -13.529  -1.876 -15.914  0.00  0.00     0.177 C 
ATOM     20  O3  <0> d  11     -14.011  -1.384 -14.922  0.00  0.00    -0.648 OA
ATOM     21  O4  <0> d  11     -12.800  -3.000 -15.821  0.00  0.00    -0.648 OA
ENDBRANCH  18  19
ENDBRANCH   8  18
TORSDOF 3
ENDMDL
