REMARK INTER + INTRA:          -7.883
REMARK INTER:                  -7.241
REMARK INTRA:                  -0.643
REMARK UNBOUND:                -0.490
REMARK  2 active torsions:
REMARK  status: ('A' for Active; 'I' for Inactive)
REMARK    1  A    between atoms: C4_4  and  C6_6 
REMARK    2  A    between atoms: C6_6  and  N1_20 
ROOT
ATOM      1  C7  <0> d  11     -13.998   2.688 -18.219  0.00  0.00     0.052 A 
ATOM      2  C8  <0> d  11     -13.882   4.061 -18.068  0.00  0.00     0.031 A 
ATOM      3  C9  <0> d  11     -12.793   4.595 -17.402  0.00  0.00     0.002 A 
ATOM      4  C10 <0> d  11     -11.815   3.768 -16.884  0.00  0.00     0.002 A 
ATOM      5  C11 <0> d  11     -11.921   2.393 -17.028  0.00  0.00     0.021 A 
ATOM      6  C12 <0> d  11     -13.006   1.856 -17.692  0.00  0.00     0.032 A 
ATOM      7  C13 <0> d  11     -14.099  -0.015 -19.388  0.00  0.00     0.032 A 
ATOM      8  C14 <0> d  11     -14.968   1.025 -19.728  0.00  0.00     0.052 A 
ATOM      9  C15 <0> d  11     -15.704   0.939 -20.899  0.00  0.00     0.031 A 
ATOM     10  C16 <0> d  11     -15.573  -0.168 -21.718  0.00  0.00     0.002 A 
ATOM     11  C17 <0> d  11     -14.712  -1.194 -21.377  0.00  0.00     0.002 A 
ATOM     12  C18 <0> d  11     -13.972  -1.118 -20.209  0.00  0.00     0.021 A 
ATOM     13  N1  <0> d  11     -15.094   2.142 -18.894  0.00  0.00    -0.344 N 
ATOM     14  S1  <0> d  11     -13.169   0.109 -17.891  0.00  0.00    -0.086 SA
ENDROOT
BRANCH  13  15
ATOM     15  C6  <0> d  11     -16.413   2.758 -18.725  0.00  0.00     0.136 C 
BRANCH  15  16
ATOM     16  C4  <0> d  11     -17.112   2.143 -17.512  0.00  0.00     0.031 C 
ATOM     17  C3  <0> d  11     -17.096   3.127 -16.313  0.00  0.00     0.035 C 
ATOM     18  C2  <0> d  11     -18.343   2.668 -15.515  0.00  0.00     0.234 C 
ATOM     19  N2  <0> d  11     -19.333   2.318 -16.553  0.00  0.00    -0.074 N 
ATOM     20  C1  <0> d  11     -20.176   1.183 -16.094  0.00  0.00     0.269 C 
ATOM     21  C5  <0> d  11     -18.619   1.955 -17.788  0.00  0.00     0.240 C 
ATOM     22  H21 <0> d  11     -19.936   3.130 -16.736  0.00  0.00     0.279 HD
ENDBRANCH  15  16
ENDBRANCH  13  15
TORSDOF 2
ENDMDL
