REMARK INTER + INTRA:         -11.341
REMARK INTER:                  -9.763
REMARK INTRA:                  -1.578
REMARK UNBOUND:                -0.972
REMARK  4 active torsions:
REMARK  status: ('A' for Active; 'I' for Inactive)
REMARK    1  A    between atoms: C4_4  and  N1_25 
REMARK    2  A    between atoms: C8_8  and  C16_16 
REMARK    3  A    between atoms: C9_9  and  C10_10 
REMARK    4  A    between atoms: C16_16  and  C17_17 
ROOT
ATOM      1  C7  <0> d  11     -16.460   2.367 -17.957  0.00  0.00     0.271 A 
ATOM      2  C8  <0> d  11     -15.114   2.153 -17.599  0.00  0.00     0.044 A 
ATOM      3  C9  <0> d  11     -14.598   1.215 -18.442  0.00  0.00     0.070 A 
ATOM      4  H1  <0> d  11     -15.508   0.174 -20.020  0.00  0.00     0.187 HD
ATOM      5  N1  <0> d  11     -16.746   1.562 -18.999  0.00  0.00    -0.252 N 
ATOM      6  N2  <0> d  11     -15.593   0.831 -19.312  0.00  0.00    -0.294 N 
ATOM      7  O1  <0> d  11     -17.229   3.145 -17.419  0.00  0.00    -0.266 OA
ENDROOT
BRANCH   5   8
ATOM      8  C4  <0> d  11     -18.039   1.466 -19.683  0.00  0.00     0.115 C 
ATOM      9  C3  <0> d  11     -17.824   0.969 -21.115  0.00  0.00     0.055 C 
ATOM     10  C2  <0> d  11     -19.181   0.813 -21.804  0.00  0.00     0.236 C 
ATOM     11  N3  <0> d  11     -19.991  -0.168 -21.053  0.00  0.00    -0.075 N 
ATOM     12  C1  <0> d  11     -21.263  -0.422 -21.762  0.00  0.00     0.269 C 
ATOM     13  C6  <0> d  11     -20.265   0.337 -19.690  0.00  0.00     0.236 C 
ATOM     14  H26 <0> d  11     -19.468  -1.049 -20.983  0.00  0.00     0.279 HD
ATOM     15  C5  <0> d  11     -18.940   0.478 -18.938  0.00  0.00     0.055 C 
ENDBRANCH   5   8
BRANCH   3  16
ATOM     16  C10 <0> d  11     -13.214   0.698 -18.423  0.00  0.00    -0.007 A 
ATOM     17  C15 <0> d  11     -12.206   1.366 -19.121  0.00  0.00     0.014 A 
ATOM     18  C14 <0> d  11     -10.916   0.878 -19.099  0.00  0.00     0.001 A 
ATOM     19  C13 <0> d  11     -10.620  -0.272 -18.388  0.00  0.00     0.000 A 
ATOM     20  C12 <0> d  11     -11.614  -0.940 -17.694  0.00  0.00     0.001 A 
ATOM     21  C11 <0> d  11     -12.907  -0.458 -17.704  0.00  0.00     0.014 A 
ENDBRANCH   3  16
BRANCH   2  22
ATOM     22  C16 <0> d  11     -14.373   2.844 -16.483  0.00  0.00     0.085 C 
BRANCH  22  23
ATOM     23  C17 <0> d  11     -13.534   3.960 -17.053  0.00  0.00    -0.054 A 
ATOM     24  C22 <0> d  11     -14.078   4.830 -17.979  0.00  0.00     0.007 A 
ATOM     25  C21 <0> d  11     -13.309   5.853 -18.501  0.00  0.00     0.001 A 
ATOM     26  C20 <0> d  11     -11.995   6.005 -18.097  0.00  0.00     0.000 A 
ATOM     27  C19 <0> d  11     -11.453   5.137 -17.169  0.00  0.00     0.001 A 
ATOM     28  C18 <0> d  11     -12.221   4.111 -16.651  0.00  0.00     0.007 A 
ENDBRANCH  22  23
ENDBRANCH   2  22
TORSDOF 4
ENDMDL
