REMARK INTER + INTRA:          -5.782
REMARK INTER:                  -5.669
REMARK INTRA:                  -0.113
REMARK UNBOUND:                -0.108
REMARK  3 active torsions:
REMARK  status: ('A' for Active; 'I' for Inactive)
REMARK    1  A    between atoms: C3_3  and  S1_15 
REMARK    2  A    between atoms: C6_6  and  C7_7 
REMARK    3  A    between atoms: S1_15  and  N1_10 
ROOT
ATOM      1  C1  <0> d  11     -16.758   2.618 -17.865  0.00  0.00     0.020 A 
ATOM      2  C2  <0> d  11     -15.498   2.778 -18.403  0.00  0.00     0.026 A 
ATOM      3  C3  <0> d  11     -14.481   3.322 -17.641  0.00  0.00     0.079 A 
ATOM      4  C4  <0> d  11     -14.719   3.713 -16.335  0.00  0.00     0.026 A 
ATOM      5  C5  <0> d  11     -15.975   3.563 -15.785  0.00  0.00     0.020 A 
ATOM      6  C6  <0> d  11     -17.007   3.015 -16.550  0.00  0.00     0.040 A 
ENDROOT
BRANCH   3   7
ATOM      7  S1  <0> d  11     -12.873   3.517 -18.334  0.00  0.00     0.256 S 
ATOM      8  O2  <0> d  11     -12.351   2.209 -18.523  0.00  0.00    -0.201 OA
ATOM      9  O3  <0> d  11     -13.000   4.448 -19.401  0.00  0.00    -0.201 OA
BRANCH   7  10
ATOM     10  N1  <0> d  11     -11.928   4.242 -17.184  0.00  0.00    -0.324 N 
ATOM     11  H5  <0> d  11     -11.279   3.717 -16.690  0.00  0.00     0.169 HD
ATOM     12  H6  <0> d  11     -12.024   5.190 -17.004  0.00  0.00     0.169 HD
ENDBRANCH   7  10
ENDBRANCH   3   7
BRANCH   6  13
ATOM     13  C7  <0> d  11     -18.356   2.852 -15.967  0.00  0.00     0.209 C 
ATOM     14  O1  <0> d  11     -19.251   2.375 -16.635  0.00  0.00    -0.644 OA
ATOM     15  O4  <0> d  11     -18.590   3.229 -14.696  0.00  0.00    -0.644 OA
ENDBRANCH   6  13
TORSDOF 3
ENDMDL
