REMARK INTER + INTRA:          -9.026
REMARK INTER:                  -8.387
REMARK INTRA:                  -0.638
REMARK UNBOUND:                -0.595
REMARK  3 active torsions:
REMARK  status: ('A' for Active; 'I' for Inactive)
REMARK    1  A    between atoms: C4_4  and  C7_7 
REMARK    2  A    between atoms: C14_14  and  C16_16 
REMARK    3  A    between atoms: C16_16  and  C17_17 
ROOT
ATOM      1  C7  <0> d  11     -15.157   0.530 -19.984  0.00  0.00     0.090 A 
ATOM      2  C8  <0> d  11     -14.701  -0.547 -20.679  0.00  0.00     0.093 A 
ATOM      3  C9  <0> d  11     -13.351  -0.947 -20.536  0.00  0.00     0.187 A 
ATOM      4  C10 <0> d  11     -12.505  -0.163 -19.615  0.00  0.00     0.048 A 
ATOM      5  C11 <0> d  11     -11.165  -0.487 -19.409  0.00  0.00     0.018 A 
ATOM      6  C12 <0> d  11     -10.408   0.271 -18.541  0.00  0.00     0.002 A 
ATOM      7  C13 <0> d  11     -10.974   1.349 -17.878  0.00  0.00     0.010 A 
ATOM      8  C14 <0> d  11     -12.299   1.678 -18.072  0.00  0.00    -0.013 A 
ATOM      9  C15 <0> d  11     -13.079   0.927 -18.943  0.00  0.00     0.097 A 
ATOM     10  O1  <0> d  11     -12.906  -1.904 -21.147  0.00  0.00    -0.287 OA
ATOM     11  O2  <0> d  11     -14.377   1.234 -19.149  0.00  0.00    -0.308 OA
ENDROOT
BRANCH   1  12
ATOM     12  C4  <0> d  11     -16.567   0.936 -20.149  0.00  0.00    -0.002 A 
ATOM     13  C3  <0> d  11     -17.194   1.710 -19.170  0.00  0.00     0.014 A 
ATOM     14  C2  <0> d  11     -18.511   2.085 -19.332  0.00  0.00     0.001 A 
ATOM     15  C1  <0> d  11     -19.212   1.698 -20.461  0.00  0.00     0.000 A 
ATOM     16  C6  <0> d  11     -18.597   0.931 -21.435  0.00  0.00     0.001 A 
ATOM     17  C5  <0> d  11     -17.278   0.553 -21.289  0.00  0.00     0.014 A 
ENDBRANCH   1  12
BRANCH   8  18
ATOM     18  C16 <0> d  11     -12.900   2.852 -17.342  0.00  0.00     0.154 C 
BRANCH  18  19
ATOM     19  C17 <0> d  11     -12.510   4.130 -18.039  0.00  0.00     0.177 C 
ATOM     20  O3  <0> d  11     -11.857   4.961 -17.455  0.00  0.00    -0.648 OA
ATOM     21  O4  <0> d  11     -12.888   4.344 -19.308  0.00  0.00    -0.648 OA
ENDBRANCH  18  19
ENDBRANCH   8  18
TORSDOF 3
ENDMDL
