REMARK INTER + INTRA:          -8.889
REMARK INTER:                  -8.357
REMARK INTRA:                  -0.532
REMARK UNBOUND:                -0.490
REMARK  2 active torsions:
REMARK  status: ('A' for Active; 'I' for Inactive)
REMARK    1  A    between atoms: C4_4  and  C6_6 
REMARK    2  A    between atoms: C6_6  and  N1_20 
ROOT
ATOM      1  C7  <0> d  11     -13.403   3.928 -18.161  0.00  0.00     0.052 A 
ATOM      2  C8  <0> d  11     -13.747   5.096 -18.821  0.00  0.00     0.031 A 
ATOM      3  C9  <0> d  11     -13.009   6.249 -18.620  0.00  0.00     0.002 A 
ATOM      4  C10 <0> d  11     -11.925   6.245 -17.763  0.00  0.00     0.002 A 
ATOM      5  C11 <0> d  11     -11.572   5.082 -17.096  0.00  0.00     0.021 A 
ATOM      6  C12 <0> d  11     -12.307   3.930 -17.293  0.00  0.00     0.032 A 
ATOM      7  C13 <0> d  11     -12.459   1.198 -17.580  0.00  0.00     0.032 A 
ATOM      8  C14 <0> d  11     -13.537   1.499 -18.417  0.00  0.00     0.052 A 
ATOM      9  C15 <0> d  11     -13.999   0.537 -19.301  0.00  0.00     0.031 A 
ATOM     10  C16 <0> d  11     -13.393  -0.705 -19.350  0.00  0.00     0.002 A 
ATOM     11  C17 <0> d  11     -12.327  -0.998 -18.521  0.00  0.00     0.002 A 
ATOM     12  C18 <0> d  11     -11.857  -0.045 -17.633  0.00  0.00     0.021 A 
ATOM     13  N1  <0> d  11     -14.144   2.759 -18.362  0.00  0.00    -0.344 N 
ATOM     14  S1  <0> d  11     -11.882   2.434 -16.458  0.00  0.00    -0.086 SA
ENDROOT
BRANCH  13  15
ATOM     15  C6  <0> d  11     -15.597   2.855 -18.521  0.00  0.00     0.136 C 
BRANCH  15  16
ATOM     16  C4  <0> d  11     -16.282   2.442 -17.217  0.00  0.00     0.031 C 
ATOM     17  C3  <0> d  11     -16.045   3.506 -16.113  0.00  0.00     0.035 C 
ATOM     18  C2  <0> d  11     -17.281   3.291 -15.203  0.00  0.00     0.234 C 
ATOM     19  N2  <0> d  11     -18.382   3.004 -16.142  0.00  0.00    -0.074 N 
ATOM     20  C1  <0> d  11     -19.335   2.038 -15.534  0.00  0.00     0.269 C 
ATOM     21  C5  <0> d  11     -17.817   2.447 -17.381  0.00  0.00     0.240 C 
ATOM     22  H21 <0> d  11     -18.881   3.875 -16.358  0.00  0.00     0.279 HD
ENDBRANCH  15  16
ENDBRANCH  13  15
TORSDOF 2
ENDMDL
