REMARK INTER + INTRA:          -9.199
REMARK INTER:                  -8.702
REMARK INTRA:                  -0.497
REMARK UNBOUND:                -0.595
REMARK  3 active torsions:
REMARK  status: ('A' for Active; 'I' for Inactive)
REMARK    1  A    between atoms: C4_4  and  C7_7 
REMARK    2  A    between atoms: C14_14  and  C16_16 
REMARK    3  A    between atoms: C16_16  and  C17_17 
ROOT
ATOM      1  C7  <0> d  11     -15.659   3.186 -16.664  0.00  0.00     0.090 A 
ATOM      2  C8  <0> d  11     -16.315   3.504 -15.515  0.00  0.00     0.093 A 
ATOM      3  C9  <0> d  11     -17.719   3.341 -15.446  0.00  0.00     0.187 A 
ATOM      4  C10 <0> d  11     -18.400   2.814 -16.645  0.00  0.00     0.048 A 
ATOM      5  C11 <0> d  11     -19.779   2.617 -16.667  0.00  0.00     0.018 A 
ATOM      6  C12 <0> d  11     -20.378   2.124 -17.806  0.00  0.00     0.002 A 
ATOM      7  C13 <0> d  11     -19.614   1.826 -18.925  0.00  0.00     0.010 A 
ATOM      8  C14 <0> d  11     -18.249   2.016 -18.915  0.00  0.00    -0.013 A 
ATOM      9  C15 <0> d  11     -17.625   2.513 -17.776  0.00  0.00     0.097 A 
ATOM     10  O1  <0> d  11     -18.341   3.621 -14.435  0.00  0.00    -0.287 OA
ATOM     11  O2  <0> d  11     -16.291   2.708 -17.746  0.00  0.00    -0.308 OA
ENDROOT
BRANCH   1  12
ATOM     12  C4  <0> d  11     -14.195   3.368 -16.718  0.00  0.00    -0.002 A 
ATOM     13  C3  <0> d  11     -13.651   4.497 -17.334  0.00  0.00     0.014 A 
ATOM     14  C2  <0> d  11     -12.282   4.661 -17.381  0.00  0.00     0.001 A 
ATOM     15  C1  <0> d  11     -11.448   3.710 -16.821  0.00  0.00     0.000 A 
ATOM     16  C6  <0> d  11     -11.980   2.588 -16.210  0.00  0.00     0.001 A 
ATOM     17  C5  <0> d  11     -13.347   2.415 -16.150  0.00  0.00     0.014 A 
ENDBRANCH   1  12
BRANCH   8  18
ATOM     18  C16 <0> d  11     -17.432   1.686 -20.138  0.00  0.00     0.154 C 
BRANCH  18  19
ATOM     19  C17 <0> d  11     -17.838   0.334 -20.664  0.00  0.00     0.177 C 
ATOM     20  O3  <0> d  11     -17.586  -0.662 -20.028  0.00  0.00    -0.648 OA
ATOM     21  O4  <0> d  11     -18.482   0.236 -21.837  0.00  0.00    -0.648 OA
ENDBRANCH  18  19
ENDBRANCH   8  18
TORSDOF 3
ENDMDL
