MODEL 1
REMARK VINA RESULT:    -8.629      0.000      0.000
REMARK INTER + INTRA:         -11.896
REMARK INTER:                 -10.451
REMARK INTRA:                  -1.445
REMARK UNBOUND:                -1.249
REMARK  4 active torsions:
REMARK  status: ('A' for Active; 'I' for Inactive)
REMARK    1  A    between atoms: C4_4  and  N1_25 
REMARK    2  A    between atoms: C8_8  and  C16_16 
REMARK    3  A    between atoms: C9_9  and  C10_10 
REMARK    4  A    between atoms: C16_16  and  C17_17 
ROOT
ATOM      1  C7  <0> d  11     -14.314   0.114 -17.383  0.00  0.00     0.271 A 
ATOM      2  C8  <0> d  11     -14.017   1.413 -16.920  0.00  0.00     0.044 A 
ATOM      3  C9  <0> d  11     -13.515   2.128 -17.966  0.00  0.00     0.070 A 
ATOM      4  H1  <0> d  11     -13.169   1.549 -19.952  0.00  0.00     0.187 HD
ATOM      5  N1  <0> d  11     -13.988   0.054 -18.689  0.00  0.00    -0.252 N 
ATOM      6  N2  <0> d  11     -13.482   1.304 -19.068  0.00  0.00    -0.294 N 
ATOM      7  O1  <0> d  11     -14.784  -0.792 -16.718  0.00  0.00    -0.266 OA
ENDROOT
BRANCH   5   8
ATOM      8  C4  <0> d  11     -14.134  -1.116 -19.559  0.00  0.00     0.115 C 
ATOM      9  C3  <0> d  11     -14.628  -0.668 -20.938  0.00  0.00     0.055 C 
ATOM     10  C2  <0> d  11     -14.720  -1.885 -21.861  0.00  0.00     0.236 C 
ATOM     11  N3  <0> d  11     -13.379  -2.496 -21.986  0.00  0.00    -0.075 N 
ATOM     12  C1  <0> d  11     -13.419  -3.605 -22.961  0.00  0.00     0.269 C 
ATOM     13  C6  <0> d  11     -12.925  -2.997 -20.671  0.00  0.00     0.236 C 
ATOM     14  H26 <0> d  11     -12.718  -1.783 -22.317  0.00  0.00     0.279 HD
ATOM     15  C5  <0> d  11     -12.779  -1.812 -19.712  0.00  0.00     0.055 C 
ENDBRANCH   5   8
BRANCH   3  16
ATOM     16  C10 <0> d  11     -13.078   3.539 -17.923  0.00  0.00    -0.007 A 
ATOM     17  C15 <0> d  11     -13.791   4.515 -18.622  0.00  0.00     0.014 A 
ATOM     18  C14 <0> d  11     -13.378   5.830 -18.577  0.00  0.00     0.001 A 
ATOM     19  C13 <0> d  11     -12.260   6.183 -17.842  0.00  0.00     0.000 A 
ATOM     20  C12 <0> d  11     -11.549   5.221 -17.146  0.00  0.00     0.001 A 
ATOM     21  C11 <0> d  11     -11.955   3.902 -17.178  0.00  0.00     0.014 A 
ENDBRANCH   3  16
BRANCH   2  22
ATOM     22  C16 <0> d  11     -14.224   1.922 -15.516  0.00  0.00     0.085 C 
BRANCH  22  23
ATOM     23  C17 <0> d  11     -15.537   2.657 -15.438  0.00  0.00    -0.054 A 
ATOM     24  C22 <0> d  11     -16.704   2.034 -15.840  0.00  0.00     0.007 A 
ATOM     25  C21 <0> d  11     -17.908   2.709 -15.767  0.00  0.00     0.001 A 
ATOM     26  C20 <0> d  11     -17.946   4.005 -15.292  0.00  0.00     0.000 A 
ATOM     27  C19 <0> d  11     -16.780   4.627 -14.885  0.00  0.00     0.001 A 
ATOM     28  C18 <0> d  11     -15.575   3.955 -14.962  0.00  0.00     0.007 A 
ENDBRANCH  22  23
ENDBRANCH   2  22
TORSDOF 4
ENDMDL
MODEL 2
REMARK VINA RESULT:    -8.382      2.320      4.791
REMARK INTER + INTRA:         -11.591
REMARK INTER:                 -10.568
REMARK INTRA:                  -1.023
REMARK UNBOUND:                -1.249
REMARK  4 active torsions:
REMARK  status: ('A' for Active; 'I' for Inactive)
REMARK    1  A    between atoms: C4_4  and  N1_25 
REMARK    2  A    between atoms: C8_8  and  C16_16 
REMARK    3  A    between atoms: C9_9  and  C10_10 
REMARK    4  A    between atoms: C16_16  and  C17_17 
ROOT
ATOM      1  C7  <0> d  11     -13.697   0.568 -17.877  0.00  0.00     0.271 A 
ATOM      2  C8  <0> d  11     -14.502   1.709 -17.684  0.00  0.00     0.044 A 
ATOM      3  C9  <0> d  11     -15.176   1.554 -16.509  0.00  0.00     0.070 A 
ATOM      4  H1  <0> d  11     -15.146  -0.032 -15.137  0.00  0.00     0.187 HD
ATOM      5  N1  <0> d  11     -13.893  -0.261 -16.833  0.00  0.00    -0.252 N 
ATOM      6  N2  <0> d  11     -14.819   0.340 -15.970  0.00  0.00    -0.294 N 
ATOM      7  O1  <0> d  11     -12.955   0.367 -18.823  0.00  0.00    -0.266 OA
ENDROOT
BRANCH   5   8
ATOM      8  C4  <0> d  11     -13.251  -1.563 -16.635  0.00  0.00     0.115 C 
ATOM      9  C3  <0> d  11     -13.712  -2.164 -15.304  0.00  0.00     0.055 C 
ATOM     10  C2  <0> d  11     -13.086  -3.550 -15.132  0.00  0.00     0.236 C 
ATOM     11  N3  <0> d  11     -13.524  -4.416 -16.248  0.00  0.00    -0.075 N 
ATOM     12  C1  <0> d  11     -13.025  -5.792 -16.043  0.00  0.00     0.269 C 
ATOM     13  C6  <0> d  11     -13.022  -3.883 -17.532  0.00  0.00     0.236 C 
ATOM     14  H26 <0> d  11     -14.551  -4.433 -16.274  0.00  0.00     0.279 HD
ATOM     15  C5  <0> d  11     -13.645  -2.506 -17.775  0.00  0.00     0.055 C 
ENDBRANCH   5   8
BRANCH   3  16
ATOM     16  C10 <0> d  11     -16.128   2.519 -15.920  0.00  0.00    -0.007 A 
ATOM     17  C15 <0> d  11     -17.503   2.321 -16.057  0.00  0.00     0.014 A 
ATOM     18  C14 <0> d  11     -18.385   3.226 -15.504  0.00  0.00     0.001 A 
ATOM     19  C13 <0> d  11     -17.909   4.329 -14.818  0.00  0.00     0.000 A 
ATOM     20  C12 <0> d  11     -16.548   4.532 -14.678  0.00  0.00     0.001 A 
ATOM     21  C11 <0> d  11     -15.655   3.631 -15.221  0.00  0.00     0.014 A 
ENDBRANCH   3  16
BRANCH   2  22
ATOM     22  C16 <0> d  11     -14.597   2.894 -18.610  0.00  0.00     0.085 C 
BRANCH  22  23
ATOM     23  C17 <0> d  11     -13.569   3.923 -18.215  0.00  0.00    -0.054 A 
ATOM     24  C22 <0> d  11     -13.594   5.181 -18.787  0.00  0.00     0.007 A 
ATOM     25  C21 <0> d  11     -12.652   6.125 -18.424  0.00  0.00     0.001 A 
ATOM     26  C20 <0> d  11     -11.686   5.811 -17.488  0.00  0.00     0.000 A 
ATOM     27  C19 <0> d  11     -11.663   4.554 -16.911  0.00  0.00     0.001 A 
ATOM     28  C18 <0> d  11     -12.602   3.609 -17.278  0.00  0.00     0.007 A 
ENDBRANCH  22  23
ENDBRANCH   2  22
TORSDOF 4
ENDMDL
MODEL 3
REMARK VINA RESULT:    -8.278      3.039      5.297
REMARK INTER + INTRA:         -11.463
REMARK INTER:                 -10.214
REMARK INTRA:                  -1.249
REMARK UNBOUND:                -1.249
REMARK  4 active torsions:
REMARK  status: ('A' for Active; 'I' for Inactive)
REMARK    1  A    between atoms: C4_4  and  N1_25 
REMARK    2  A    between atoms: C8_8  and  C16_16 
REMARK    3  A    between atoms: C9_9  and  C10_10 
REMARK    4  A    between atoms: C16_16  and  C17_17 
ROOT
ATOM      1  C7  <0> d  11     -15.839   0.838 -17.838  0.00  0.00     0.271 A 
ATOM      2  C8  <0> d  11     -14.665   1.543 -17.506  0.00  0.00     0.044 A 
ATOM      3  C9  <0> d  11     -14.727   2.768 -18.101  0.00  0.00     0.070 A 
ATOM      4  H1  <0> d  11     -16.213   3.597 -19.327  0.00  0.00     0.187 HD
ATOM      5  N1  <0> d  11     -16.591   1.631 -18.627  0.00  0.00    -0.252 N 
ATOM      6  N2  <0> d  11     -15.907   2.840 -18.805  0.00  0.00    -0.294 N 
ATOM      7  O1  <0> d  11     -16.124  -0.289 -17.474  0.00  0.00    -0.266 OA
ENDROOT
BRANCH   5   8
ATOM      8  C4  <0> d  11     -17.895   1.287 -19.201  0.00  0.00     0.115 C 
ATOM      9  C3  <0> d  11     -18.953   2.267 -18.688  0.00  0.00     0.055 C 
ATOM     10  C2  <0> d  11     -20.300   1.942 -19.338  0.00  0.00     0.236 C 
ATOM     11  N3  <0> d  11     -20.170   2.070 -20.805  0.00  0.00    -0.075 N 
ATOM     12  C1  <0> d  11     -21.485   1.872 -21.448  0.00  0.00     0.269 C 
ATOM     13  C6  <0> d  11     -19.202   1.077 -21.318  0.00  0.00     0.236 C 
ATOM     14  H26 <0> d  11     -19.828   3.013 -21.027  0.00  0.00     0.279 HD
ATOM     15  C5  <0> d  11     -17.822   1.377 -20.728  0.00  0.00     0.055 C 
ENDBRANCH   5   8
BRANCH   3  16
ATOM     16  C10 <0> d  11     -13.703   3.830 -18.010  0.00  0.00    -0.007 A 
ATOM     17  C15 <0> d  11     -13.295   4.511 -19.159  0.00  0.00     0.014 A 
ATOM     18  C14 <0> d  11     -12.340   5.501 -19.066  0.00  0.00     0.001 A 
ATOM     19  C13 <0> d  11     -11.785   5.820 -17.839  0.00  0.00     0.000 A 
ATOM     20  C12 <0> d  11     -12.186   5.150 -16.696  0.00  0.00     0.001 A 
ATOM     21  C11 <0> d  11     -13.145   4.161 -16.775  0.00  0.00     0.014 A 
ENDBRANCH   3  16
BRANCH   2  22
ATOM     22  C16 <0> d  11     -13.541   1.035 -16.640  0.00  0.00     0.085 C 
BRANCH  22  23
ATOM     23  C17 <0> d  11     -12.453   0.465 -17.514  0.00  0.00    -0.054 A 
ATOM     24  C22 <0> d  11     -11.311   1.203 -17.767  0.00  0.00     0.007 A 
ATOM     25  C21 <0> d  11     -10.314   0.680 -18.568  0.00  0.00     0.001 A 
ATOM     26  C20 <0> d  11     -10.457  -0.581 -19.114  0.00  0.00     0.000 A 
ATOM     27  C19 <0> d  11     -11.596  -1.321 -18.858  0.00  0.00     0.001 A 
ATOM     28  C18 <0> d  11     -12.596  -0.797 -18.061  0.00  0.00     0.007 A 
ENDBRANCH  22  23
ENDBRANCH   2  22
TORSDOF 4
ENDMDL
MODEL 4
REMARK VINA RESULT:    -8.199      3.170      5.113
REMARK INTER + INTRA:         -11.365
REMARK INTER:                  -9.804
REMARK INTRA:                  -1.561
REMARK UNBOUND:                -1.249
REMARK  4 active torsions:
REMARK  status: ('A' for Active; 'I' for Inactive)
REMARK    1  A    between atoms: C4_4  and  N1_25 
REMARK    2  A    between atoms: C8_8  and  C16_16 
REMARK    3  A    between atoms: C9_9  and  C10_10 
REMARK    4  A    between atoms: C16_16  and  C17_17 
ROOT
ATOM      1  C7  <0> d  11     -16.459   2.383 -17.716  0.00  0.00     0.271 A 
ATOM      2  C8  <0> d  11     -15.099   2.175 -17.409  0.00  0.00     0.044 A 
ATOM      3  C9  <0> d  11     -14.619   1.217 -18.251  0.00  0.00     0.070 A 
ATOM      4  H1  <0> d  11     -15.595   0.143 -19.766  0.00  0.00     0.187 HD
ATOM      5  N1  <0> d  11     -16.789   1.555 -18.726  0.00  0.00    -0.252 N 
ATOM      6  N2  <0> d  11     -15.650   0.816 -19.070  0.00  0.00    -0.294 N 
ATOM      7  O1  <0> d  11     -17.204   3.174 -17.164  0.00  0.00    -0.266 OA
ENDROOT
BRANCH   5   8
ATOM      8  C4  <0> d  11     -18.108   1.446 -19.354  0.00  0.00     0.115 C 
ATOM      9  C3  <0> d  11     -17.941   1.231 -20.861  0.00  0.00     0.055 C 
ATOM     10  C2  <0> d  11     -19.319   1.056 -21.503  0.00  0.00     0.236 C 
ATOM     11  N3  <0> d  11     -19.983  -0.121 -20.901  0.00  0.00    -0.075 N 
ATOM     12  C1  <0> d  11     -21.268  -0.378 -21.584  0.00  0.00     0.269 C 
ATOM     13  C6  <0> d  11     -20.214   0.108 -19.460  0.00  0.00     0.236 C 
ATOM     14  H26 <0> d  11     -19.374  -0.940 -21.015  0.00  0.00     0.279 HD
ATOM     15  C5  <0> d  11     -18.862   0.255 -18.757  0.00  0.00     0.055 C 
ENDBRANCH   5   8
BRANCH   3  16
ATOM     16  C10 <0> d  11     -13.236   0.698 -18.278  0.00  0.00    -0.007 A 
ATOM     17  C15 <0> d  11     -12.912  -0.470 -17.585  0.00  0.00     0.014 A 
ATOM     18  C14 <0> d  11     -11.619  -0.949 -17.615  0.00  0.00     0.001 A 
ATOM     19  C13 <0> d  11     -10.644  -0.274 -18.327  0.00  0.00     0.000 A 
ATOM     20  C12 <0> d  11     -10.958   0.884 -19.017  0.00  0.00     0.001 A 
ATOM     21  C11 <0> d  11     -12.249   1.370 -19.000  0.00  0.00     0.014 A 
ENDBRANCH   3  16
BRANCH   2  22
ATOM     22  C16 <0> d  11     -14.312   2.890 -16.340  0.00  0.00     0.085 C 
BRANCH  22  23
ATOM     23  C17 <0> d  11     -13.521   4.011 -16.965  0.00  0.00    -0.054 A 
ATOM     24  C22 <0> d  11     -12.193   4.192 -16.627  0.00  0.00     0.007 A 
ATOM     25  C21 <0> d  11     -11.468   5.220 -17.201  0.00  0.00     0.001 A 
ATOM     26  C20 <0> d  11     -12.071   6.066 -18.112  0.00  0.00     0.000 A 
ATOM     27  C19 <0> d  11     -13.398   5.882 -18.454  0.00  0.00     0.001 A 
ATOM     28  C18 <0> d  11     -14.125   4.857 -17.877  0.00  0.00     0.007 A 
ENDBRANCH  22  23
ENDBRANCH   2  22
TORSDOF 4
ENDMDL
