REMARK INTER + INTRA:          -5.577
REMARK INTER:                  -5.465
REMARK INTRA:                  -0.112
REMARK UNBOUND:                -0.112
REMARK  3 active torsions:
REMARK  status: ('A' for Active; 'I' for Inactive)
REMARK    1  A    between atoms: C3_3  and  S1_15 
REMARK    2  A    between atoms: C6_6  and  C7_7 
REMARK    3  A    between atoms: S1_15  and  N1_10 
ROOT
ATOM      1  C1  <0> d  11     -14.285   3.686 -17.461  0.00  0.00     0.020 A 
ATOM      2  C2  <0> d  11     -14.598   2.380 -17.143  0.00  0.00     0.026 A 
ATOM      3  C3  <0> d  11     -13.594   1.476 -16.852  0.00  0.00     0.079 A 
ATOM      4  C4  <0> d  11     -12.268   1.871 -16.881  0.00  0.00     0.026 A 
ATOM      5  C5  <0> d  11     -11.939   3.172 -17.202  0.00  0.00     0.020 A 
ATOM      6  C6  <0> d  11     -12.948   4.090 -17.498  0.00  0.00     0.040 A 
ENDROOT
BRANCH   3   7
ATOM      7  S1  <0> d  11     -14.004  -0.188 -16.440  0.00  0.00     0.256 S 
ATOM      8  O2  <0> d  11     -15.166  -0.516 -17.188  0.00  0.00    -0.201 OA
ATOM      9  O3  <0> d  11     -12.800  -0.938 -16.533  0.00  0.00    -0.201 OA
BRANCH   7  10
ATOM     10  N1  <0> d  11     -14.448  -0.201 -14.845  0.00  0.00    -0.324 N 
ATOM     11  H5  <0> d  11     -14.799  -1.013 -14.447  0.00  0.00     0.169 HD
ATOM     12  H6  <0> d  11     -14.357   0.602 -14.309  0.00  0.00     0.169 HD
ENDBRANCH   7  10
ENDBRANCH   3   7
BRANCH   6  13
ATOM     13  C7  <0> d  11     -12.604   5.485 -17.844  0.00  0.00     0.209 C 
ATOM     14  O1  <0> d  11     -13.353   6.140 -18.540  0.00  0.00    -0.644 OA
ATOM     15  O4  <0> d  11     -11.462   6.031 -17.383  0.00  0.00    -0.644 OA
ENDBRANCH   6  13
TORSDOF 3
ENDMDL
