REMARK INTER + INTRA:         -11.229
REMARK INTER:                 -10.257
REMARK INTRA:                  -0.972
REMARK UNBOUND:                -0.972
REMARK  4 active torsions:
REMARK  status: ('A' for Active; 'I' for Inactive)
REMARK    1  A    between atoms: C4_4  and  N1_25 
REMARK    2  A    between atoms: C8_8  and  C16_16 
REMARK    3  A    between atoms: C9_9  and  C10_10 
REMARK    4  A    between atoms: C16_16  and  C17_17 
ROOT
ATOM      1  C7  <0> d  11     -16.384   0.775 -18.685  0.00  0.00     0.271 A 
ATOM      2  C8  <0> d  11     -15.527   1.529 -17.857  0.00  0.00     0.044 A 
ATOM      3  C9  <0> d  11     -14.782   2.345 -18.655  0.00  0.00     0.070 A 
ATOM      4  H1  <0> d  11     -14.778   2.551 -20.743  0.00  0.00     0.187 HD
ATOM      5  N1  <0> d  11     -16.149   1.133 -19.962  0.00  0.00    -0.252 N 
ATOM      6  N2  <0> d  11     -15.147   2.112 -19.961  0.00  0.00    -0.294 N 
ATOM      7  O1  <0> d  11     -17.194  -0.054 -18.309  0.00  0.00    -0.266 OA
ENDROOT
BRANCH   5   8
ATOM      8  C4  <0> d  11     -16.823   0.592 -21.145  0.00  0.00     0.115 C 
ATOM      9  C3  <0> d  11     -16.605  -0.921 -21.212  0.00  0.00     0.055 C 
ATOM     10  C2  <0> d  11     -17.362  -1.489 -22.415  0.00  0.00     0.236 C 
ATOM     11  N3  <0> d  11     -18.802  -1.200 -22.256  0.00  0.00    -0.075 N 
ATOM     12  C1  <0> d  11     -19.568  -1.836 -23.348  0.00  0.00     0.269 C 
ATOM     13  C6  <0> d  11     -19.030   0.261 -22.264  0.00  0.00     0.236 C 
ATOM     14  H26 <0> d  11     -19.122  -1.582 -21.358  0.00  0.00     0.279 HD
ATOM     15  C5  <0> d  11     -18.324   0.880 -21.056  0.00  0.00     0.055 C 
ENDBRANCH   5   8
BRANCH   3  16
ATOM     16  C10 <0> d  11     -13.759   3.309 -18.198  0.00  0.00    -0.007 A 
ATOM     17  C15 <0> d  11     -13.826   4.644 -18.599  0.00  0.00     0.014 A 
ATOM     18  C14 <0> d  11     -12.868   5.539 -18.168  0.00  0.00     0.001 A 
ATOM     19  C13 <0> d  11     -11.843   5.115 -17.341  0.00  0.00     0.000 A 
ATOM     20  C12 <0> d  11     -11.772   3.793 -16.939  0.00  0.00     0.001 A 
ATOM     21  C11 <0> d  11     -12.727   2.889 -17.358  0.00  0.00     0.014 A 
ENDBRANCH   3  16
BRANCH   2  22
ATOM     22  C16 <0> d  11     -15.451   1.451 -16.354  0.00  0.00     0.085 C 
BRANCH  22  23
ATOM     23  C17 <0> d  11     -16.265   2.567 -15.752  0.00  0.00    -0.054 A 
ATOM     24  C22 <0> d  11     -15.633   3.662 -15.196  0.00  0.00     0.007 A 
ATOM     25  C21 <0> d  11     -16.380   4.687 -14.644  0.00  0.00     0.001 A 
ATOM     26  C20 <0> d  11     -17.761   4.615 -14.650  0.00  0.00     0.000 A 
ATOM     27  C19 <0> d  11     -18.393   3.521 -15.210  0.00  0.00     0.001 A 
ATOM     28  C18 <0> d  11     -17.646   2.495 -15.757  0.00  0.00     0.007 A 
ENDBRANCH  22  23
ENDBRANCH   2  22
TORSDOF 4
ENDMDL
