MODEL 1
REMARK VINA RESULT:    -7.519      0.000      0.000
REMARK INTER + INTRA:          -8.889
REMARK INTER:                  -8.357
REMARK INTRA:                  -0.532
REMARK UNBOUND:                -0.490
REMARK  2 active torsions:
REMARK  status: ('A' for Active; 'I' for Inactive)
REMARK    1  A    between atoms: C4_4  and  C6_6 
REMARK    2  A    between atoms: C6_6  and  N1_20 
ROOT
ATOM      1  C7  <0> d  11     -13.403   3.928 -18.161  0.00  0.00     0.052 A 
ATOM      2  C8  <0> d  11     -13.747   5.096 -18.821  0.00  0.00     0.031 A 
ATOM      3  C9  <0> d  11     -13.009   6.249 -18.620  0.00  0.00     0.002 A 
ATOM      4  C10 <0> d  11     -11.925   6.245 -17.763  0.00  0.00     0.002 A 
ATOM      5  C11 <0> d  11     -11.572   5.082 -17.096  0.00  0.00     0.021 A 
ATOM      6  C12 <0> d  11     -12.307   3.930 -17.293  0.00  0.00     0.032 A 
ATOM      7  C13 <0> d  11     -12.459   1.198 -17.580  0.00  0.00     0.032 A 
ATOM      8  C14 <0> d  11     -13.537   1.499 -18.417  0.00  0.00     0.052 A 
ATOM      9  C15 <0> d  11     -13.999   0.537 -19.301  0.00  0.00     0.031 A 
ATOM     10  C16 <0> d  11     -13.393  -0.705 -19.350  0.00  0.00     0.002 A 
ATOM     11  C17 <0> d  11     -12.327  -0.998 -18.521  0.00  0.00     0.002 A 
ATOM     12  C18 <0> d  11     -11.857  -0.045 -17.633  0.00  0.00     0.021 A 
ATOM     13  N1  <0> d  11     -14.144   2.759 -18.362  0.00  0.00    -0.344 N 
ATOM     14  S1  <0> d  11     -11.882   2.434 -16.458  0.00  0.00    -0.086 SA
ENDROOT
BRANCH  13  15
ATOM     15  C6  <0> d  11     -15.597   2.855 -18.521  0.00  0.00     0.136 C 
BRANCH  15  16
ATOM     16  C4  <0> d  11     -16.282   2.442 -17.217  0.00  0.00     0.031 C 
ATOM     17  C3  <0> d  11     -16.045   3.506 -16.113  0.00  0.00     0.035 C 
ATOM     18  C2  <0> d  11     -17.281   3.291 -15.203  0.00  0.00     0.234 C 
ATOM     19  N2  <0> d  11     -18.382   3.004 -16.142  0.00  0.00    -0.074 N 
ATOM     20  C1  <0> d  11     -19.335   2.038 -15.534  0.00  0.00     0.269 C 
ATOM     21  C5  <0> d  11     -17.817   2.447 -17.381  0.00  0.00     0.240 C 
ATOM     22  H21 <0> d  11     -18.881   3.875 -16.358  0.00  0.00     0.279 HD
ENDBRANCH  15  16
ENDBRANCH  13  15
TORSDOF 2
ENDMDL
MODEL 2
REMARK VINA RESULT:    -6.889      2.894      5.671
REMARK INTER + INTRA:          -8.185
REMARK INTER:                  -7.651
REMARK INTRA:                  -0.534
REMARK UNBOUND:                -0.490
REMARK  2 active torsions:
REMARK  status: ('A' for Active; 'I' for Inactive)
REMARK    1  A    between atoms: C4_4  and  C6_6 
REMARK    2  A    between atoms: C6_6  and  N1_20 
ROOT
ATOM      1  C7  <0> d  11     -13.377  -0.171 -19.488  0.00  0.00     0.052 A 
ATOM      2  C8  <0> d  11     -12.781  -1.154 -20.262  0.00  0.00     0.031 A 
ATOM      3  C9  <0> d  11     -13.372  -1.556 -21.446  0.00  0.00     0.002 A 
ATOM      4  C10 <0> d  11     -14.557  -0.983 -21.866  0.00  0.00     0.002 A 
ATOM      5  C11 <0> d  11     -15.163  -0.000 -21.100  0.00  0.00     0.021 A 
ATOM      6  C12 <0> d  11     -14.576   0.403 -19.916  0.00  0.00     0.032 A 
ATOM      7  C13 <0> d  11     -13.931   2.371 -18.105  0.00  0.00     0.032 A 
ATOM      8  C14 <0> d  11     -12.802   1.579 -17.878  0.00  0.00     0.052 A 
ATOM      9  C15 <0> d  11     -11.703   2.131 -17.240  0.00  0.00     0.031 A 
ATOM     10  C16 <0> d  11     -11.729   3.454 -16.837  0.00  0.00     0.002 A 
ATOM     11  C17 <0> d  11     -12.848   4.234 -17.064  0.00  0.00     0.002 A 
ATOM     12  C18 <0> d  11     -13.953   3.692 -17.700  0.00  0.00     0.021 A 
ATOM     13  N1  <0> d  11     -12.783   0.241 -18.290  0.00  0.00    -0.344 N 
ATOM     14  S1  <0> d  11     -15.325   1.653 -18.918  0.00  0.00    -0.086 SA
ENDROOT
BRANCH  13  15
ATOM     15  C6  <0> d  11     -12.119  -0.754 -17.444  0.00  0.00     0.136 C 
BRANCH  15  16
ATOM     16  C4  <0> d  11     -13.170  -1.667 -16.810  0.00  0.00     0.031 C 
ATOM     17  C3  <0> d  11     -12.496  -2.884 -16.124  0.00  0.00     0.035 C 
ATOM     18  C2  <0> d  11     -13.543  -3.253 -15.043  0.00  0.00     0.234 C 
ATOM     19  N2  <0> d  11     -14.054  -1.951 -14.570  0.00  0.00    -0.074 N 
ATOM     20  C1  <0> d  11     -15.491  -2.067 -14.209  0.00  0.00     0.269 C 
ATOM     21  C5  <0> d  11     -13.876  -0.954 -15.638  0.00  0.00     0.240 C 
ATOM     22  H21 <0> d  11     -13.523  -1.658 -13.741  0.00  0.00     0.279 HD
ENDBRANCH  15  16
ENDBRANCH  13  15
TORSDOF 2
ENDMDL
MODEL 3
REMARK VINA RESULT:    -6.619      1.516      2.186
REMARK INTER + INTRA:          -7.883
REMARK INTER:                  -7.241
REMARK INTRA:                  -0.643
REMARK UNBOUND:                -0.490
REMARK  2 active torsions:
REMARK  status: ('A' for Active; 'I' for Inactive)
REMARK    1  A    between atoms: C4_4  and  C6_6 
REMARK    2  A    between atoms: C6_6  and  N1_20 
ROOT
ATOM      1  C7  <0> d  11     -13.998   2.688 -18.219  0.00  0.00     0.052 A 
ATOM      2  C8  <0> d  11     -13.882   4.061 -18.068  0.00  0.00     0.031 A 
ATOM      3  C9  <0> d  11     -12.793   4.595 -17.402  0.00  0.00     0.002 A 
ATOM      4  C10 <0> d  11     -11.815   3.768 -16.884  0.00  0.00     0.002 A 
ATOM      5  C11 <0> d  11     -11.921   2.393 -17.028  0.00  0.00     0.021 A 
ATOM      6  C12 <0> d  11     -13.006   1.856 -17.692  0.00  0.00     0.032 A 
ATOM      7  C13 <0> d  11     -14.099  -0.015 -19.388  0.00  0.00     0.032 A 
ATOM      8  C14 <0> d  11     -14.968   1.025 -19.728  0.00  0.00     0.052 A 
ATOM      9  C15 <0> d  11     -15.704   0.939 -20.899  0.00  0.00     0.031 A 
ATOM     10  C16 <0> d  11     -15.573  -0.168 -21.718  0.00  0.00     0.002 A 
ATOM     11  C17 <0> d  11     -14.712  -1.194 -21.377  0.00  0.00     0.002 A 
ATOM     12  C18 <0> d  11     -13.972  -1.118 -20.209  0.00  0.00     0.021 A 
ATOM     13  N1  <0> d  11     -15.094   2.142 -18.894  0.00  0.00    -0.344 N 
ATOM     14  S1  <0> d  11     -13.169   0.109 -17.891  0.00  0.00    -0.086 SA
ENDROOT
BRANCH  13  15
ATOM     15  C6  <0> d  11     -16.413   2.758 -18.725  0.00  0.00     0.136 C 
BRANCH  15  16
ATOM     16  C4  <0> d  11     -17.112   2.143 -17.512  0.00  0.00     0.031 C 
ATOM     17  C3  <0> d  11     -17.096   3.127 -16.313  0.00  0.00     0.035 C 
ATOM     18  C2  <0> d  11     -18.343   2.668 -15.515  0.00  0.00     0.234 C 
ATOM     19  N2  <0> d  11     -19.333   2.318 -16.553  0.00  0.00    -0.074 N 
ATOM     20  C1  <0> d  11     -20.176   1.183 -16.094  0.00  0.00     0.269 C 
ATOM     21  C5  <0> d  11     -18.619   1.955 -17.788  0.00  0.00     0.240 C 
ATOM     22  H21 <0> d  11     -19.936   3.130 -16.736  0.00  0.00     0.279 HD
ENDBRANCH  15  16
ENDBRANCH  13  15
TORSDOF 2
ENDMDL
MODEL 4
REMARK VINA RESULT:    -6.576      2.365      4.880
REMARK INTER + INTRA:          -7.835
REMARK INTER:                  -7.213
REMARK INTRA:                  -0.622
REMARK UNBOUND:                -0.490
REMARK  2 active torsions:
REMARK  status: ('A' for Active; 'I' for Inactive)
REMARK    1  A    between atoms: C4_4  and  C6_6 
REMARK    2  A    between atoms: C6_6  and  N1_20 
ROOT
ATOM      1  C7  <0> d  11     -13.251   0.435 -18.076  0.00  0.00     0.052 A 
ATOM      2  C8  <0> d  11     -12.815  -0.879 -18.122  0.00  0.00     0.031 A 
ATOM      3  C9  <0> d  11     -11.482  -1.159 -18.363  0.00  0.00     0.002 A 
ATOM      4  C10 <0> d  11     -10.576  -0.134 -18.559  0.00  0.00     0.002 A 
ATOM      5  C11 <0> d  11     -11.000   1.185 -18.517  0.00  0.00     0.021 A 
ATOM      6  C12 <0> d  11     -12.331   1.468 -18.277  0.00  0.00     0.032 A 
ATOM      7  C13 <0> d  11     -14.284   3.026 -17.125  0.00  0.00     0.032 A 
ATOM      8  C14 <0> d  11     -14.987   1.820 -17.050  0.00  0.00     0.052 A 
ATOM      9  C15 <0> d  11     -16.074   1.720 -16.197  0.00  0.00     0.031 A 
ATOM     10  C16 <0> d  11     -16.453   2.807 -15.429  0.00  0.00     0.002 A 
ATOM     11  C17 <0> d  11     -15.754   3.997 -15.505  0.00  0.00     0.002 A 
ATOM     12  C18 <0> d  11     -14.666   4.108 -16.356  0.00  0.00     0.021 A 
ATOM     13  N1  <0> d  11     -14.597   0.725 -17.830  0.00  0.00    -0.344 N 
ATOM     14  S1  <0> d  11     -12.901   3.138 -18.218  0.00  0.00    -0.086 SA
ENDROOT
BRANCH  13  15
ATOM     15  C6  <0> d  11     -15.629  -0.143 -18.403  0.00  0.00     0.136 C 
BRANCH  15  16
ATOM     16  C4  <0> d  11     -16.253   0.541 -19.621  0.00  0.00     0.031 C 
ATOM     17  C3  <0> d  11     -15.996  -0.289 -20.906  0.00  0.00     0.035 C 
ATOM     18  C2  <0> d  11     -17.190   0.139 -21.797  0.00  0.00     0.234 C 
ATOM     19  N2  <0> d  11     -18.321   0.266 -20.857  0.00  0.00    -0.074 N 
ATOM     20  C1  <0> d  11     -19.227   1.361 -21.293  0.00  0.00     0.269 C 
ATOM     21  C5  <0> d  11     -17.792   0.549 -19.513  0.00  0.00     0.240 C 
ATOM     22  H21 <0> d  11     -18.847  -0.615 -20.836  0.00  0.00     0.279 HD
ENDBRANCH  15  16
ENDBRANCH  13  15
TORSDOF 2
ENDMDL
MODEL 5
REMARK VINA RESULT:    -6.537      2.714      4.535
REMARK INTER + INTRA:          -7.791
REMARK INTER:                  -7.301
REMARK INTRA:                  -0.490
REMARK UNBOUND:                -0.490
REMARK  2 active torsions:
REMARK  status: ('A' for Active; 'I' for Inactive)
REMARK    1  A    between atoms: C4_4  and  C6_6 
REMARK    2  A    between atoms: C6_6  and  N1_20 
ROOT
ATOM      1  C7  <0> d  11     -13.250   1.655 -17.807  0.00  0.00     0.052 A 
ATOM      2  C8  <0> d  11     -12.473   2.580 -18.486  0.00  0.00     0.031 A 
ATOM      3  C9  <0> d  11     -12.575   3.926 -18.183  0.00  0.00     0.002 A 
ATOM      4  C10 <0> d  11     -13.448   4.358 -17.203  0.00  0.00     0.002 A 
ATOM      5  C11 <0> d  11     -14.230   3.443 -16.517  0.00  0.00     0.021 A 
ATOM      6  C12 <0> d  11     -14.133   2.098 -16.818  0.00  0.00     0.032 A 
ATOM      7  C13 <0> d  11     -14.109  -0.541 -16.040  0.00  0.00     0.032 A 
ATOM      8  C14 <0> d  11     -13.228  -0.691 -17.115  0.00  0.00     0.052 A 
ATOM      9  C15 <0> d  11     -12.433  -1.823 -17.187  0.00  0.00     0.031 A 
ATOM     10  C16 <0> d  11     -12.515  -2.791 -16.202  0.00  0.00     0.002 A 
ATOM     11  C17 <0> d  11     -13.388  -2.638 -15.140  0.00  0.00     0.002 A 
ATOM     12  C18 <0> d  11     -14.187  -1.510 -15.058  0.00  0.00     0.021 A 
ATOM     13  N1  <0> d  11     -13.150   0.293 -18.107  0.00  0.00    -0.344 N 
ATOM     14  S1  <0> d  11     -15.116   0.908 -15.962  0.00  0.00    -0.086 SA
ENDROOT
BRANCH  13  15
ATOM     15  C6  <0> d  11     -12.956  -0.117 -19.500  0.00  0.00     0.136 C 
BRANCH  15  16
ATOM     16  C4  <0> d  11     -14.308  -0.475 -20.120  0.00  0.00     0.031 C 
ATOM     17  C3  <0> d  11     -15.158   0.802 -20.355  0.00  0.00     0.035 C 
ATOM     18  C2  <0> d  11     -16.074   0.356 -21.522  0.00  0.00     0.234 C 
ATOM     19  N2  <0> d  11     -15.203  -0.477 -22.374  0.00  0.00    -0.074 N 
ATOM     20  C1  <0> d  11     -15.993  -1.572 -22.996  0.00  0.00     0.269 C 
ATOM     21  C5  <0> d  11     -14.123  -1.036 -21.546  0.00  0.00     0.240 C 
ATOM     22  H21 <0> d  11     -14.795   0.105 -23.116  0.00  0.00     0.279 HD
ENDBRANCH  15  16
ENDBRANCH  13  15
TORSDOF 2
ENDMDL
