REMARK INTER + INTRA:          -7.918
REMARK INTER:                  -7.277
REMARK INTRA:                  -0.641
REMARK UNBOUND:                -0.512
REMARK  2 active torsions:
REMARK  status: ('A' for Active; 'I' for Inactive)
REMARK    1  A    between atoms: C4_4  and  C6_6 
REMARK    2  A    between atoms: C6_6  and  N1_20 
ROOT
ATOM      1  C7  <0> d  11     -13.901   2.719 -18.146  0.00  0.00     0.052 A 
ATOM      2  C8  <0> d  11     -13.800   4.097 -18.040  0.00  0.00     0.031 A 
ATOM      3  C9  <0> d  11     -12.728   4.663 -17.374  0.00  0.00     0.002 A 
ATOM      4  C10 <0> d  11     -11.752   3.864 -16.811  0.00  0.00     0.002 A 
ATOM      5  C11 <0> d  11     -11.843   2.484 -16.910  0.00  0.00     0.021 A 
ATOM      6  C12 <0> d  11     -12.912   1.915 -17.573  0.00  0.00     0.032 A 
ATOM      7  C13 <0> d  11     -13.959  -0.023 -19.223  0.00  0.00     0.032 A 
ATOM      8  C14 <0> d  11     -14.831   0.997 -19.613  0.00  0.00     0.052 A 
ATOM      9  C15 <0> d  11     -15.545   0.864 -20.793  0.00  0.00     0.031 A 
ATOM     10  C16 <0> d  11     -15.390  -0.269 -21.572  0.00  0.00     0.002 A 
ATOM     11  C17 <0> d  11     -14.526  -1.275 -21.181  0.00  0.00     0.002 A 
ATOM     12  C18 <0> d  11     -13.807  -1.153 -20.004  0.00  0.00     0.021 A 
ATOM     13  N1  <0> d  11     -14.981   2.140 -18.820  0.00  0.00    -0.344 N 
ATOM     14  S1  <0> d  11     -13.055   0.161 -17.716  0.00  0.00    -0.086 SA
ENDROOT
BRANCH  13  15
ATOM     15  C6  <0> d  11     -16.308   2.749 -18.696  0.00  0.00     0.136 C 
BRANCH  15  16
ATOM     16  C4  <0> d  11     -17.029   2.154 -17.485  0.00  0.00     0.031 C 
ATOM     17  C3  <0> d  11     -17.017   3.148 -16.295  0.00  0.00     0.035 C 
ATOM     18  C2  <0> d  11     -18.279   2.713 -15.509  0.00  0.00     0.234 C 
ATOM     19  N2  <0> d  11     -19.260   2.365 -16.556  0.00  0.00    -0.074 N 
ATOM     20  C1  <0> d  11     -20.122   1.243 -16.098  0.00  0.00     0.269 C 
ATOM     21  C5  <0> d  11     -18.535   1.981 -17.778  0.00  0.00     0.240 C 
ATOM     22  H21 <0> d  11     -19.850   3.181 -16.753  0.00  0.00     0.279 HD
ENDBRANCH  15  16
ENDBRANCH  13  15
TORSDOF 2
ENDMDL
