REMARK INTER + INTRA:          -5.612
REMARK INTER:                  -5.504
REMARK INTRA:                  -0.108
REMARK UNBOUND:                -0.108
REMARK  3 active torsions:
REMARK  status: ('A' for Active; 'I' for Inactive)
REMARK    1  A    between atoms: C3_3  and  S1_15 
REMARK    2  A    between atoms: C6_6  and  C7_7 
REMARK    3  A    between atoms: S1_15  and  N1_10 
ROOT
ATOM      1  C1  <0> d  11     -13.356   3.419 -18.697  0.00  0.00     0.020 A 
ATOM      2  C2  <0> d  11     -13.480   2.059 -18.494  0.00  0.00     0.026 A 
ATOM      3  C3  <0> d  11     -12.801   1.447 -17.456  0.00  0.00     0.079 A 
ATOM      4  C4  <0> d  11     -11.990   2.191 -16.617  0.00  0.00     0.026 A 
ATOM      5  C5  <0> d  11     -11.853   3.550 -16.810  0.00  0.00     0.020 A 
ATOM      6  C6  <0> d  11     -12.535   4.174 -17.857  0.00  0.00     0.040 A 
ENDROOT
BRANCH   3   7
ATOM      7  S1  <0> d  11     -12.970  -0.288 -17.201  0.00  0.00     0.256 S 
ATOM      8  O2  <0> d  11     -11.704  -0.866 -17.489  0.00  0.00    -0.201 OA
ATOM      9  O3  <0> d  11     -13.615  -0.454 -15.945  0.00  0.00    -0.201 OA
BRANCH   7  10
ATOM     10  N1  <0> d  11     -14.020  -0.852 -18.350  0.00  0.00    -0.324 N 
ATOM     11  H5  <0> d  11     -14.688  -1.515 -18.113  0.00  0.00     0.169 HD
ATOM     12  H6  <0> d  11     -13.968  -0.519 -19.260  0.00  0.00     0.169 HD
ENDBRANCH   7  10
ENDBRANCH   3   7
BRANCH   6  13
ATOM     13  C7  <0> d  11     -12.393   5.630 -18.071  0.00  0.00     0.209 C 
ATOM     14  O1  <0> d  11     -13.358   6.293 -18.392  0.00  0.00    -0.644 OA
ATOM     15  O4  <0> d  11     -11.194   6.220 -17.904  0.00  0.00    -0.644 OA
ENDBRANCH   6  13
TORSDOF 3
ENDMDL
