REMARK INTER + INTRA:          -6.169
REMARK INTER:                  -6.063
REMARK INTRA:                  -0.106
REMARK UNBOUND:                -0.108
REMARK  3 active torsions:
REMARK  status: ('A' for Active; 'I' for Inactive)
REMARK    1  A    between atoms: C3_3  and  S1_15 
REMARK    2  A    between atoms: C6_6  and  C7_7 
REMARK    3  A    between atoms: S1_15  and  N1_10 
ROOT
ATOM      1  C1  <0> d  11     -17.351   4.289 -14.719  0.00  0.00     0.020 A 
ATOM      2  C2  <0> d  11     -16.068   4.087 -15.184  0.00  0.00     0.026 A 
ATOM      3  C3  <0> d  11     -15.815   3.103 -16.122  0.00  0.00     0.079 A 
ATOM      4  C4  <0> d  11     -16.846   2.310 -16.598  0.00  0.00     0.026 A 
ATOM      5  C5  <0> d  11     -18.133   2.497 -16.138  0.00  0.00     0.020 A 
ATOM      6  C6  <0> d  11     -18.394   3.489 -15.190  0.00  0.00     0.040 A 
ENDROOT
BRANCH   3   7
ATOM      7  S1  <0> d  11     -14.174   2.857 -16.715  0.00  0.00     0.256 S 
ATOM      8  O2  <0> d  11     -14.281   2.046 -17.877  0.00  0.00    -0.201 OA
ATOM      9  O3  <0> d  11     -13.552   4.135 -16.732  0.00  0.00    -0.201 OA
BRANCH   7  10
ATOM     10  N1  <0> d  11     -13.374   1.956 -15.581  0.00  0.00    -0.324 N 
ATOM     11  H5  <0> d  11     -13.837   1.243 -15.113  0.00  0.00     0.169 HD
ATOM     12  H6  <0> d  11     -12.442   2.140 -15.384  0.00  0.00     0.169 HD
ENDBRANCH   7  10
ENDBRANCH   3   7
BRANCH   6  13
ATOM     13  C7  <0> d  11     -19.770   3.695 -14.692  0.00  0.00     0.209 C 
ATOM     14  O1  <0> d  11     -19.999   3.643 -13.501  0.00  0.00    -0.644 OA
ATOM     15  O4  <0> d  11     -20.769   3.943 -15.560  0.00  0.00    -0.644 OA
ENDBRANCH   6  13
TORSDOF 3
ENDMDL
