REMARK INTER + INTRA:          -5.956
REMARK INTER:                  -5.854
REMARK INTRA:                  -0.101
REMARK UNBOUND:                -0.112
REMARK  3 active torsions:
REMARK  status: ('A' for Active; 'I' for Inactive)
REMARK    1  A    between atoms: C3_3  and  S1_15 
REMARK    2  A    between atoms: C6_6  and  C7_7 
REMARK    3  A    between atoms: S1_15  and  N1_10 
ROOT
ATOM      1  C1  <0> d  11     -16.628   2.735 -16.914  0.00  0.00     0.020 A 
ATOM      2  C2  <0> d  11     -17.934   2.668 -16.475  0.00  0.00     0.026 A 
ATOM      3  C3  <0> d  11     -18.332   3.392 -15.366  0.00  0.00     0.079 A 
ATOM      4  C4  <0> d  11     -17.424   4.185 -14.686  0.00  0.00     0.026 A 
ATOM      5  C5  <0> d  11     -16.114   4.258 -15.111  0.00  0.00     0.020 A 
ATOM      6  C6  <0> d  11     -15.705   3.529 -16.230  0.00  0.00     0.040 A 
ENDROOT
BRANCH   3   7
ATOM      7  S1  <0> d  11     -20.004   3.306 -14.816  0.00  0.00     0.256 S 
ATOM      8  O2  <0> d  11     -20.005   3.715 -13.455  0.00  0.00    -0.201 OA
ATOM      9  O3  <0> d  11     -20.792   3.952 -15.806  0.00  0.00    -0.201 OA
BRANCH   7  10
ATOM     10  N1  <0> d  11     -20.442   1.709 -14.830  0.00  0.00    -0.324 N 
ATOM     11  H5  <0> d  11     -21.242   1.422 -14.363  0.00  0.00     0.169 HD
ATOM     12  H6  <0> d  11     -19.899   1.062 -15.306  0.00  0.00     0.169 HD
ENDBRANCH   7  10
ENDBRANCH   3   7
BRANCH   6  13
ATOM     13  C7  <0> d  11     -14.303   3.602 -16.691  0.00  0.00     0.209 C 
ATOM     14  O1  <0> d  11     -13.963   4.475 -17.463  0.00  0.00    -0.644 OA
ATOM     15  O4  <0> d  11     -13.401   2.702 -16.251  0.00  0.00    -0.644 OA
ENDBRANCH   6  13
TORSDOF 3
ENDMDL
