REMARK INTER + INTRA:         -11.936
REMARK INTER:                 -10.495
REMARK INTRA:                  -1.441
REMARK UNBOUND:                -0.972
REMARK  4 active torsions:
REMARK  status: ('A' for Active; 'I' for Inactive)
REMARK    1  A    between atoms: C4_4  and  N1_25 
REMARK    2  A    between atoms: C8_8  and  C16_16 
REMARK    3  A    between atoms: C9_9  and  C10_10 
REMARK    4  A    between atoms: C16_16  and  C17_17 
ROOT
ATOM      1  C7  <0> d  11     -14.302   0.098 -17.371  0.00  0.00     0.271 A 
ATOM      2  C8  <0> d  11     -14.019   1.404 -16.921  0.00  0.00     0.044 A 
ATOM      3  C9  <0> d  11     -13.533   2.117 -17.976  0.00  0.00     0.070 A 
ATOM      4  H1  <0> d  11     -13.194   1.526 -19.960  0.00  0.00     0.187 HD
ATOM      5  N1  <0> d  11     -13.984   0.032 -18.678  0.00  0.00    -0.252 N 
ATOM      6  N2  <0> d  11     -13.498   1.285 -19.071  0.00  0.00    -0.294 N 
ATOM      7  O1  <0> d  11     -14.756  -0.809 -16.695  0.00  0.00    -0.266 OA
ENDROOT
BRANCH   5   8
ATOM      8  C4  <0> d  11     -14.122  -1.147 -19.538  0.00  0.00     0.115 C 
ATOM      9  C3  <0> d  11     -14.652  -0.721 -20.910  0.00  0.00     0.055 C 
ATOM     10  C2  <0> d  11     -14.736  -1.947 -21.822  0.00  0.00     0.236 C 
ATOM     11  N3  <0> d  11     -13.386  -2.529 -21.969  0.00  0.00    -0.075 N 
ATOM     12  C1  <0> d  11     -13.419  -3.646 -22.936  0.00  0.00     0.269 C 
ATOM     13  C6  <0> d  11     -12.895  -3.010 -20.659  0.00  0.00     0.236 C 
ATOM     14  H26 <0> d  11     -12.747  -1.805 -22.319  0.00  0.00     0.279 HD
ATOM     15  C5  <0> d  11     -12.756  -1.816 -19.713  0.00  0.00     0.055 C 
ENDBRANCH   5   8
BRANCH   3  16
ATOM     16  C10 <0> d  11     -13.115   3.534 -17.947  0.00  0.00    -0.007 A 
ATOM     17  C15 <0> d  11     -11.989   3.918 -17.216  0.00  0.00     0.014 A 
ATOM     18  C14 <0> d  11     -11.604   5.242 -17.194  0.00  0.00     0.001 A 
ATOM     19  C13 <0> d  11     -12.331   6.189 -17.893  0.00  0.00     0.000 A 
ATOM     20  C12 <0> d  11     -13.447   5.816 -18.621  0.00  0.00     0.001 A 
ATOM     21  C11 <0> d  11     -13.840   4.493 -18.656  0.00  0.00     0.014 A 
ENDBRANCH   3  16
BRANCH   2  22
ATOM     22  C16 <0> d  11     -14.222   1.922 -15.520  0.00  0.00     0.085 C 
BRANCH  22  23
ATOM     23  C17 <0> d  11     -15.547   2.636 -15.437  0.00  0.00    -0.054 A 
ATOM     24  C22 <0> d  11     -16.706   1.989 -15.819  0.00  0.00     0.007 A 
ATOM     25  C21 <0> d  11     -17.922   2.643 -15.742  0.00  0.00     0.001 A 
ATOM     26  C20 <0> d  11     -17.976   3.946 -15.282  0.00  0.00     0.000 A 
ATOM     27  C19 <0> d  11     -16.818   4.592 -14.896  0.00  0.00     0.001 A 
ATOM     28  C18 <0> d  11     -15.602   3.939 -14.978  0.00  0.00     0.007 A 
ENDBRANCH  22  23
ENDBRANCH   2  22
TORSDOF 4
ENDMDL
