MODEL 1
REMARK VINA RESULT:    -8.886      0.000      0.000
REMARK INTER + INTRA:         -11.936
REMARK INTER:                 -10.495
REMARK INTRA:                  -1.441
REMARK UNBOUND:                -0.972
REMARK  4 active torsions:
REMARK  status: ('A' for Active; 'I' for Inactive)
REMARK    1  A    between atoms: C4_4  and  N1_25 
REMARK    2  A    between atoms: C8_8  and  C16_16 
REMARK    3  A    between atoms: C9_9  and  C10_10 
REMARK    4  A    between atoms: C16_16  and  C17_17 
ROOT
ATOM      1  C7  <0> d  11     -14.302   0.098 -17.371  0.00  0.00     0.271 A 
ATOM      2  C8  <0> d  11     -14.019   1.404 -16.921  0.00  0.00     0.044 A 
ATOM      3  C9  <0> d  11     -13.533   2.117 -17.976  0.00  0.00     0.070 A 
ATOM      4  H1  <0> d  11     -13.194   1.526 -19.960  0.00  0.00     0.187 HD
ATOM      5  N1  <0> d  11     -13.984   0.032 -18.678  0.00  0.00    -0.252 N 
ATOM      6  N2  <0> d  11     -13.498   1.285 -19.071  0.00  0.00    -0.294 N 
ATOM      7  O1  <0> d  11     -14.756  -0.809 -16.695  0.00  0.00    -0.266 OA
ENDROOT
BRANCH   5   8
ATOM      8  C4  <0> d  11     -14.122  -1.147 -19.538  0.00  0.00     0.115 C 
ATOM      9  C3  <0> d  11     -14.652  -0.721 -20.910  0.00  0.00     0.055 C 
ATOM     10  C2  <0> d  11     -14.736  -1.947 -21.822  0.00  0.00     0.236 C 
ATOM     11  N3  <0> d  11     -13.386  -2.529 -21.969  0.00  0.00    -0.075 N 
ATOM     12  C1  <0> d  11     -13.419  -3.646 -22.936  0.00  0.00     0.269 C 
ATOM     13  C6  <0> d  11     -12.895  -3.010 -20.659  0.00  0.00     0.236 C 
ATOM     14  H26 <0> d  11     -12.747  -1.805 -22.319  0.00  0.00     0.279 HD
ATOM     15  C5  <0> d  11     -12.756  -1.816 -19.713  0.00  0.00     0.055 C 
ENDBRANCH   5   8
BRANCH   3  16
ATOM     16  C10 <0> d  11     -13.115   3.534 -17.947  0.00  0.00    -0.007 A 
ATOM     17  C15 <0> d  11     -11.989   3.918 -17.216  0.00  0.00     0.014 A 
ATOM     18  C14 <0> d  11     -11.604   5.242 -17.194  0.00  0.00     0.001 A 
ATOM     19  C13 <0> d  11     -12.331   6.189 -17.893  0.00  0.00     0.000 A 
ATOM     20  C12 <0> d  11     -13.447   5.816 -18.621  0.00  0.00     0.001 A 
ATOM     21  C11 <0> d  11     -13.840   4.493 -18.656  0.00  0.00     0.014 A 
ENDBRANCH   3  16
BRANCH   2  22
ATOM     22  C16 <0> d  11     -14.222   1.922 -15.520  0.00  0.00     0.085 C 
BRANCH  22  23
ATOM     23  C17 <0> d  11     -15.547   2.636 -15.437  0.00  0.00    -0.054 A 
ATOM     24  C22 <0> d  11     -16.706   1.989 -15.819  0.00  0.00     0.007 A 
ATOM     25  C21 <0> d  11     -17.922   2.643 -15.742  0.00  0.00     0.001 A 
ATOM     26  C20 <0> d  11     -17.976   3.946 -15.282  0.00  0.00     0.000 A 
ATOM     27  C19 <0> d  11     -16.818   4.592 -14.896  0.00  0.00     0.001 A 
ATOM     28  C18 <0> d  11     -15.602   3.939 -14.978  0.00  0.00     0.007 A 
ENDBRANCH  22  23
ENDBRANCH   2  22
TORSDOF 4
ENDMDL
MODEL 2
REMARK VINA RESULT:    -8.654      2.267      4.736
REMARK INTER + INTRA:         -11.649
REMARK INTER:                 -10.551
REMARK INTRA:                  -1.098
REMARK UNBOUND:                -0.972
REMARK  4 active torsions:
REMARK  status: ('A' for Active; 'I' for Inactive)
REMARK    1  A    between atoms: C4_4  and  N1_25 
REMARK    2  A    between atoms: C8_8  and  C16_16 
REMARK    3  A    between atoms: C9_9  and  C10_10 
REMARK    4  A    between atoms: C16_16  and  C17_17 
ROOT
ATOM      1  C7  <0> d  11     -13.669   0.607 -18.007  0.00  0.00     0.271 A 
ATOM      2  C8  <0> d  11     -14.460   1.752 -17.783  0.00  0.00     0.044 A 
ATOM      3  C9  <0> d  11     -15.117   1.585 -16.601  0.00  0.00     0.070 A 
ATOM      4  H1  <0> d  11     -15.081  -0.023 -15.255  0.00  0.00     0.187 HD
ATOM      5  N1  <0> d  11     -13.856  -0.236 -16.973  0.00  0.00    -0.252 N 
ATOM      6  N2  <0> d  11     -14.763   0.359 -16.087  0.00  0.00    -0.294 N 
ATOM      7  O1  <0> d  11     -12.943   0.416 -18.967  0.00  0.00    -0.266 OA
ENDROOT
BRANCH   5   8
ATOM      8  C4  <0> d  11     -13.223  -1.547 -16.807  0.00  0.00     0.115 C 
ATOM      9  C3  <0> d  11     -13.569  -2.111 -15.427  0.00  0.00     0.055 C 
ATOM     10  C2  <0> d  11     -12.956  -3.506 -15.282  0.00  0.00     0.236 C 
ATOM     11  N3  <0> d  11     -13.510  -4.385 -16.333  0.00  0.00    -0.075 N 
ATOM     12  C1  <0> d  11     -13.021  -5.767 -16.146  0.00  0.00     0.269 C 
ATOM     13  C6  <0> d  11     -13.118  -3.888 -17.669  0.00  0.00     0.236 C 
ATOM     14  H26 <0> d  11     -14.535  -4.383 -16.264  0.00  0.00     0.279 HD
ATOM     15  C5  <0> d  11     -13.737  -2.505 -17.885  0.00  0.00     0.055 C 
ENDBRANCH   5   8
BRANCH   3  16
ATOM     16  C10 <0> d  11     -16.050   2.549 -15.982  0.00  0.00    -0.007 A 
ATOM     17  C15 <0> d  11     -15.557   3.639 -15.263  0.00  0.00     0.014 A 
ATOM     18  C14 <0> d  11     -16.433   4.536 -14.688  0.00  0.00     0.001 A 
ATOM     19  C13 <0> d  11     -17.799   4.356 -14.822  0.00  0.00     0.000 A 
ATOM     20  C12 <0> d  11     -18.295   3.278 -15.534  0.00  0.00     0.001 A 
ATOM     21  C11 <0> d  11     -17.429   2.377 -16.119  0.00  0.00     0.014 A 
ENDBRANCH   3  16
BRANCH   2  22
ATOM     22  C16 <0> d  11     -14.558   2.954 -18.689  0.00  0.00     0.085 C 
BRANCH  22  23
ATOM     23  C17 <0> d  11     -13.548   3.988 -18.261  0.00  0.00    -0.054 A 
ATOM     24  C22 <0> d  11     -13.613   5.270 -18.770  0.00  0.00     0.007 A 
ATOM     25  C21 <0> d  11     -12.687   6.219 -18.377  0.00  0.00     0.001 A 
ATOM     26  C20 <0> d  11     -11.696   5.883 -17.473  0.00  0.00     0.000 A 
ATOM     27  C19 <0> d  11     -11.634   4.602 -16.961  0.00  0.00     0.001 A 
ATOM     28  C18 <0> d  11     -12.557   3.652 -17.358  0.00  0.00     0.007 A 
ENDBRANCH  22  23
ENDBRANCH   2  22
TORSDOF 4
ENDMDL
MODEL 3
REMARK VINA RESULT:    -8.495      3.050      5.299
REMARK INTER + INTRA:         -11.453
REMARK INTER:                 -10.351
REMARK INTRA:                  -1.102
REMARK UNBOUND:                -0.972
REMARK  4 active torsions:
REMARK  status: ('A' for Active; 'I' for Inactive)
REMARK    1  A    between atoms: C4_4  and  N1_25 
REMARK    2  A    between atoms: C8_8  and  C16_16 
REMARK    3  A    between atoms: C9_9  and  C10_10 
REMARK    4  A    between atoms: C16_16  and  C17_17 
ROOT
ATOM      1  C7  <0> d  11     -15.834   0.785 -17.943  0.00  0.00     0.271 A 
ATOM      2  C8  <0> d  11     -14.659   1.480 -17.591  0.00  0.00     0.044 A 
ATOM      3  C9  <0> d  11     -14.726   2.725 -18.141  0.00  0.00     0.070 A 
ATOM      4  H1  <0> d  11     -16.220   3.596 -19.328  0.00  0.00     0.187 HD
ATOM      5  N1  <0> d  11     -16.591   1.605 -18.698  0.00  0.00    -0.252 N 
ATOM      6  N2  <0> d  11     -15.910   2.821 -18.835  0.00  0.00    -0.294 N 
ATOM      7  O1  <0> d  11     -16.115  -0.356 -17.619  0.00  0.00    -0.266 OA
ENDROOT
BRANCH   5   8
ATOM      8  C4  <0> d  11     -17.898   1.280 -19.277  0.00  0.00     0.115 C 
ATOM      9  C3  <0> d  11     -18.935   2.301 -18.805  0.00  0.00     0.055 C 
ATOM     10  C2  <0> d  11     -20.283   1.992 -19.460  0.00  0.00     0.236 C 
ATOM     11  N3  <0> d  11     -20.134   2.076 -20.928  0.00  0.00    -0.075 N 
ATOM     12  C1  <0> d  11     -21.447   1.893 -21.581  0.00  0.00     0.269 C 
ATOM     13  C6  <0> d  11     -19.187   1.043 -21.401  0.00  0.00     0.236 C 
ATOM     14  H26 <0> d  11     -19.766   3.003 -21.173  0.00  0.00     0.279 HD
ATOM     15  C5  <0> d  11     -17.807   1.325 -20.805  0.00  0.00     0.055 C 
ENDBRANCH   5   8
BRANCH   3  16
ATOM     16  C10 <0> d  11     -13.704   3.785 -18.017  0.00  0.00    -0.007 A 
ATOM     17  C15 <0> d  11     -13.408   4.606 -19.107  0.00  0.00     0.014 A 
ATOM     18  C14 <0> d  11     -12.453   5.594 -18.984  0.00  0.00     0.001 A 
ATOM     19  C13 <0> d  11     -11.788   5.771 -17.783  0.00  0.00     0.000 A 
ATOM     20  C12 <0> d  11     -12.076   4.962 -16.698  0.00  0.00     0.001 A 
ATOM     21  C11 <0> d  11     -13.034   3.974 -16.807  0.00  0.00     0.014 A 
ENDBRANCH   3  16
BRANCH   2  22
ATOM     22  C16 <0> d  11     -13.529   0.942 -16.751  0.00  0.00     0.085 C 
BRANCH  22  23
ATOM     23  C17 <0> d  11     -12.453   0.392 -17.651  0.00  0.00    -0.054 A 
ATOM     24  C22 <0> d  11     -12.659  -0.790 -18.334  0.00  0.00     0.007 A 
ATOM     25  C21 <0> d  11     -11.672  -1.294 -19.160  0.00  0.00     0.001 A 
ATOM     26  C20 <0> d  11     -10.477  -0.613 -19.302  0.00  0.00     0.000 A 
ATOM     27  C19 <0> d  11     -10.271   0.571 -18.622  0.00  0.00     0.001 A 
ATOM     28  C18 <0> d  11     -11.257   1.072 -17.792  0.00  0.00     0.007 A 
ENDBRANCH  22  23
ENDBRANCH   2  22
TORSDOF 4
ENDMDL
MODEL 4
REMARK VINA RESULT:    -8.404      3.189      5.100
REMARK INTER + INTRA:         -11.341
REMARK INTER:                  -9.763
REMARK INTRA:                  -1.578
REMARK UNBOUND:                -0.972
REMARK  4 active torsions:
REMARK  status: ('A' for Active; 'I' for Inactive)
REMARK    1  A    between atoms: C4_4  and  N1_25 
REMARK    2  A    between atoms: C8_8  and  C16_16 
REMARK    3  A    between atoms: C9_9  and  C10_10 
REMARK    4  A    between atoms: C16_16  and  C17_17 
ROOT
ATOM      1  C7  <0> d  11     -16.460   2.367 -17.957  0.00  0.00     0.271 A 
ATOM      2  C8  <0> d  11     -15.114   2.153 -17.599  0.00  0.00     0.044 A 
ATOM      3  C9  <0> d  11     -14.598   1.215 -18.442  0.00  0.00     0.070 A 
ATOM      4  H1  <0> d  11     -15.508   0.174 -20.020  0.00  0.00     0.187 HD
ATOM      5  N1  <0> d  11     -16.746   1.562 -18.999  0.00  0.00    -0.252 N 
ATOM      6  N2  <0> d  11     -15.593   0.831 -19.312  0.00  0.00    -0.294 N 
ATOM      7  O1  <0> d  11     -17.229   3.145 -17.419  0.00  0.00    -0.266 OA
ENDROOT
BRANCH   5   8
ATOM      8  C4  <0> d  11     -18.039   1.466 -19.683  0.00  0.00     0.115 C 
ATOM      9  C3  <0> d  11     -17.824   0.969 -21.115  0.00  0.00     0.055 C 
ATOM     10  C2  <0> d  11     -19.181   0.813 -21.804  0.00  0.00     0.236 C 
ATOM     11  N3  <0> d  11     -19.991  -0.168 -21.053  0.00  0.00    -0.075 N 
ATOM     12  C1  <0> d  11     -21.263  -0.422 -21.762  0.00  0.00     0.269 C 
ATOM     13  C6  <0> d  11     -20.265   0.337 -19.690  0.00  0.00     0.236 C 
ATOM     14  H26 <0> d  11     -19.468  -1.049 -20.983  0.00  0.00     0.279 HD
ATOM     15  C5  <0> d  11     -18.940   0.478 -18.938  0.00  0.00     0.055 C 
ENDBRANCH   5   8
BRANCH   3  16
ATOM     16  C10 <0> d  11     -13.214   0.698 -18.423  0.00  0.00    -0.007 A 
ATOM     17  C15 <0> d  11     -12.206   1.366 -19.121  0.00  0.00     0.014 A 
ATOM     18  C14 <0> d  11     -10.916   0.878 -19.099  0.00  0.00     0.001 A 
ATOM     19  C13 <0> d  11     -10.620  -0.272 -18.388  0.00  0.00     0.000 A 
ATOM     20  C12 <0> d  11     -11.614  -0.940 -17.694  0.00  0.00     0.001 A 
ATOM     21  C11 <0> d  11     -12.907  -0.458 -17.704  0.00  0.00     0.014 A 
ENDBRANCH   3  16
BRANCH   2  22
ATOM     22  C16 <0> d  11     -14.373   2.844 -16.483  0.00  0.00     0.085 C 
BRANCH  22  23
ATOM     23  C17 <0> d  11     -13.534   3.960 -17.053  0.00  0.00    -0.054 A 
ATOM     24  C22 <0> d  11     -14.078   4.830 -17.979  0.00  0.00     0.007 A 
ATOM     25  C21 <0> d  11     -13.309   5.853 -18.501  0.00  0.00     0.001 A 
ATOM     26  C20 <0> d  11     -11.995   6.005 -18.097  0.00  0.00     0.000 A 
ATOM     27  C19 <0> d  11     -11.453   5.137 -17.169  0.00  0.00     0.001 A 
ATOM     28  C18 <0> d  11     -12.221   4.111 -16.651  0.00  0.00     0.007 A 
ENDBRANCH  22  23
ENDBRANCH   2  22
TORSDOF 4
ENDMDL
MODEL 5
REMARK VINA RESULT:    -8.313      2.419      3.240
REMARK INTER + INTRA:         -11.229
REMARK INTER:                 -10.257
REMARK INTRA:                  -0.972
REMARK UNBOUND:                -0.972
REMARK  4 active torsions:
REMARK  status: ('A' for Active; 'I' for Inactive)
REMARK    1  A    between atoms: C4_4  and  N1_25 
REMARK    2  A    between atoms: C8_8  and  C16_16 
REMARK    3  A    between atoms: C9_9  and  C10_10 
REMARK    4  A    between atoms: C16_16  and  C17_17 
ROOT
ATOM      1  C7  <0> d  11     -16.384   0.775 -18.685  0.00  0.00     0.271 A 
ATOM      2  C8  <0> d  11     -15.527   1.529 -17.857  0.00  0.00     0.044 A 
ATOM      3  C9  <0> d  11     -14.782   2.345 -18.655  0.00  0.00     0.070 A 
ATOM      4  H1  <0> d  11     -14.778   2.551 -20.743  0.00  0.00     0.187 HD
ATOM      5  N1  <0> d  11     -16.149   1.133 -19.962  0.00  0.00    -0.252 N 
ATOM      6  N2  <0> d  11     -15.147   2.112 -19.961  0.00  0.00    -0.294 N 
ATOM      7  O1  <0> d  11     -17.194  -0.054 -18.309  0.00  0.00    -0.266 OA
ENDROOT
BRANCH   5   8
ATOM      8  C4  <0> d  11     -16.823   0.592 -21.145  0.00  0.00     0.115 C 
ATOM      9  C3  <0> d  11     -16.605  -0.921 -21.212  0.00  0.00     0.055 C 
ATOM     10  C2  <0> d  11     -17.362  -1.489 -22.415  0.00  0.00     0.236 C 
ATOM     11  N3  <0> d  11     -18.802  -1.200 -22.256  0.00  0.00    -0.075 N 
ATOM     12  C1  <0> d  11     -19.568  -1.836 -23.348  0.00  0.00     0.269 C 
ATOM     13  C6  <0> d  11     -19.030   0.261 -22.264  0.00  0.00     0.236 C 
ATOM     14  H26 <0> d  11     -19.122  -1.582 -21.358  0.00  0.00     0.279 HD
ATOM     15  C5  <0> d  11     -18.324   0.880 -21.056  0.00  0.00     0.055 C 
ENDBRANCH   5   8
BRANCH   3  16
ATOM     16  C10 <0> d  11     -13.759   3.309 -18.198  0.00  0.00    -0.007 A 
ATOM     17  C15 <0> d  11     -13.826   4.644 -18.599  0.00  0.00     0.014 A 
ATOM     18  C14 <0> d  11     -12.868   5.539 -18.168  0.00  0.00     0.001 A 
ATOM     19  C13 <0> d  11     -11.843   5.115 -17.341  0.00  0.00     0.000 A 
ATOM     20  C12 <0> d  11     -11.772   3.793 -16.939  0.00  0.00     0.001 A 
ATOM     21  C11 <0> d  11     -12.727   2.889 -17.358  0.00  0.00     0.014 A 
ENDBRANCH   3  16
BRANCH   2  22
ATOM     22  C16 <0> d  11     -15.451   1.451 -16.354  0.00  0.00     0.085 C 
BRANCH  22  23
ATOM     23  C17 <0> d  11     -16.265   2.567 -15.752  0.00  0.00    -0.054 A 
ATOM     24  C22 <0> d  11     -15.633   3.662 -15.196  0.00  0.00     0.007 A 
ATOM     25  C21 <0> d  11     -16.380   4.687 -14.644  0.00  0.00     0.001 A 
ATOM     26  C20 <0> d  11     -17.761   4.615 -14.650  0.00  0.00     0.000 A 
ATOM     27  C19 <0> d  11     -18.393   3.521 -15.210  0.00  0.00     0.001 A 
ATOM     28  C18 <0> d  11     -17.646   2.495 -15.757  0.00  0.00     0.007 A 
ENDBRANCH  22  23
ENDBRANCH   2  22
TORSDOF 4
ENDMDL
