REMARK INTER + INTRA:          -9.757
REMARK INTER:                  -9.114
REMARK INTRA:                  -0.644
REMARK UNBOUND:                -0.408
REMARK  3 active torsions:
REMARK  status: ('A' for Active; 'I' for Inactive)
REMARK    1  A    between atoms: C4_4  and  C7_7 
REMARK    2  A    between atoms: C14_14  and  C16_16 
REMARK    3  A    between atoms: C16_16  and  C17_17 
ROOT
ATOM      1  C7  <0> d  11     -14.231   2.358 -16.889  0.00  0.00     0.090 A 
ATOM      2  C8  <0> d  11     -13.068   2.922 -16.464  0.00  0.00     0.093 A 
ATOM      3  C9  <0> d  11     -11.836   2.445 -16.971  0.00  0.00     0.187 A 
ATOM      4  C10 <0> d  11     -11.888   1.347 -17.957  0.00  0.00     0.048 A 
ATOM      5  C11 <0> d  11     -10.726   0.817 -18.512  0.00  0.00     0.018 A 
ATOM      6  C12 <0> d  11     -10.817  -0.208 -19.430  0.00  0.00     0.002 A 
ATOM      7  C13 <0> d  11     -12.056  -0.709 -19.799  0.00  0.00     0.010 A 
ATOM      8  C14 <0> d  11     -13.214  -0.191 -19.257  0.00  0.00    -0.013 A 
ATOM      9  C15 <0> d  11     -13.144   0.842 -18.330  0.00  0.00     0.097 A 
ATOM     10  O1  <0> d  11     -10.774   2.922 -16.609  0.00  0.00    -0.287 OA
ATOM     11  O2  <0> d  11     -14.264   1.362 -17.786  0.00  0.00    -0.308 OA
ENDROOT
BRANCH   1  12
ATOM     12  C4  <0> d  11     -15.506   2.867 -16.345  0.00  0.00    -0.002 A 
ATOM     13  C3  <0> d  11     -15.503   3.837 -15.341  0.00  0.00     0.014 A 
ATOM     14  C2  <0> d  11     -16.698   4.308 -14.838  0.00  0.00     0.001 A 
ATOM     15  C1  <0> d  11     -17.899   3.820 -15.325  0.00  0.00     0.000 A 
ATOM     16  C6  <0> d  11     -17.908   2.859 -16.320  0.00  0.00     0.001 A 
ATOM     17  C5  <0> d  11     -16.720   2.383 -16.837  0.00  0.00     0.014 A 
ENDBRANCH   1  12
BRANCH   8  18
ATOM     18  C16 <0> d  11     -14.554  -0.745 -19.669  0.00  0.00     0.154 C 
BRANCH  18  19
ATOM     19  C17 <0> d  11     -14.985  -0.105 -20.964  0.00  0.00     0.177 C 
ATOM     20  O3  <0> d  11     -15.631   0.916 -20.948  0.00  0.00    -0.648 OA
ATOM     21  O4  <0> d  11     -14.653  -0.672 -22.135  0.00  0.00    -0.648 OA
ENDBRANCH  18  19
ENDBRANCH   8  18
TORSDOF 3
ENDMDL
