REMARK INTER + INTRA:          -7.789
REMARK INTER:                  -7.277
REMARK INTRA:                  -0.512
REMARK UNBOUND:                -0.512
REMARK  2 active torsions:
REMARK  status: ('A' for Active; 'I' for Inactive)
REMARK    1  A    between atoms: C4_4  and  C6_6 
REMARK    2  A    between atoms: C6_6  and  N1_20 
ROOT
ATOM      1  C7  <0> d  11     -13.229   1.633 -17.686  0.00  0.00     0.052 A 
ATOM      2  C8  <0> d  11     -12.416   2.552 -18.331  0.00  0.00     0.031 A 
ATOM      3  C9  <0> d  11     -12.522   3.899 -18.034  0.00  0.00     0.002 A 
ATOM      4  C10 <0> d  11     -13.435   4.338 -17.094  0.00  0.00     0.002 A 
ATOM      5  C11 <0> d  11     -14.253   3.429 -16.443  0.00  0.00     0.021 A 
ATOM      6  C12 <0> d  11     -14.152   2.084 -16.738  0.00  0.00     0.032 A 
ATOM      7  C13 <0> d  11     -14.181  -0.555 -15.957  0.00  0.00     0.032 A 
ATOM      8  C14 <0> d  11     -13.254  -0.712 -16.992  0.00  0.00     0.052 A 
ATOM      9  C15 <0> d  11     -12.465  -1.850 -17.028  0.00  0.00     0.031 A 
ATOM     10  C16 <0> d  11     -12.597  -2.815 -16.046  0.00  0.00     0.002 A 
ATOM     11  C17 <0> d  11     -13.516  -2.655 -15.025  0.00  0.00     0.002 A 
ATOM     12  C18 <0> d  11     -14.310  -1.521 -14.979  0.00  0.00     0.021 A 
ATOM     13  N1  <0> d  11     -13.125   0.270 -17.981  0.00  0.00    -0.344 N 
ATOM     14  S1  <0> d  11     -15.181   0.901 -15.926  0.00  0.00    -0.086 SA
ENDROOT
BRANCH  13  15
ATOM     15  C6  <0> d  11     -12.872  -0.143 -19.363  0.00  0.00     0.136 C 
BRANCH  15  16
ATOM     16  C4  <0> d  11     -14.191  -0.551 -20.022  0.00  0.00     0.031 C 
ATOM     17  C3  <0> d  11     -15.091   0.689 -20.264  0.00  0.00     0.035 C 
ATOM     18  C2  <0> d  11     -15.956   0.221 -21.460  0.00  0.00     0.234 C 
ATOM     19  N2  <0> d  11     -15.027  -0.563 -22.299  0.00  0.00    -0.074 N 
ATOM     20  C1  <0> d  11     -15.751  -1.684 -22.955  0.00  0.00     0.269 C 
ATOM     21  C5  <0> d  11     -13.945  -1.086 -21.449  0.00  0.00     0.240 C 
ATOM     22  H21 <0> d  11     -14.627   0.046 -23.022  0.00  0.00     0.279 HD
ENDBRANCH  15  16
ENDBRANCH  13  15
TORSDOF 2
ENDMDL
