REMARK INTER + INTRA:         -11.649
REMARK INTER:                 -10.551
REMARK INTRA:                  -1.098
REMARK UNBOUND:                -0.972
REMARK  4 active torsions:
REMARK  status: ('A' for Active; 'I' for Inactive)
REMARK    1  A    between atoms: C4_4  and  N1_25 
REMARK    2  A    between atoms: C8_8  and  C16_16 
REMARK    3  A    between atoms: C9_9  and  C10_10 
REMARK    4  A    between atoms: C16_16  and  C17_17 
ROOT
ATOM      1  C7  <0> d  11     -13.669   0.607 -18.007  0.00  0.00     0.271 A 
ATOM      2  C8  <0> d  11     -14.460   1.752 -17.783  0.00  0.00     0.044 A 
ATOM      3  C9  <0> d  11     -15.117   1.585 -16.601  0.00  0.00     0.070 A 
ATOM      4  H1  <0> d  11     -15.081  -0.023 -15.255  0.00  0.00     0.187 HD
ATOM      5  N1  <0> d  11     -13.856  -0.236 -16.973  0.00  0.00    -0.252 N 
ATOM      6  N2  <0> d  11     -14.763   0.359 -16.087  0.00  0.00    -0.294 N 
ATOM      7  O1  <0> d  11     -12.943   0.416 -18.967  0.00  0.00    -0.266 OA
ENDROOT
BRANCH   5   8
ATOM      8  C4  <0> d  11     -13.223  -1.547 -16.807  0.00  0.00     0.115 C 
ATOM      9  C3  <0> d  11     -13.569  -2.111 -15.427  0.00  0.00     0.055 C 
ATOM     10  C2  <0> d  11     -12.956  -3.506 -15.282  0.00  0.00     0.236 C 
ATOM     11  N3  <0> d  11     -13.510  -4.385 -16.333  0.00  0.00    -0.075 N 
ATOM     12  C1  <0> d  11     -13.021  -5.767 -16.146  0.00  0.00     0.269 C 
ATOM     13  C6  <0> d  11     -13.118  -3.888 -17.669  0.00  0.00     0.236 C 
ATOM     14  H26 <0> d  11     -14.535  -4.383 -16.264  0.00  0.00     0.279 HD
ATOM     15  C5  <0> d  11     -13.737  -2.505 -17.885  0.00  0.00     0.055 C 
ENDBRANCH   5   8
BRANCH   3  16
ATOM     16  C10 <0> d  11     -16.050   2.549 -15.982  0.00  0.00    -0.007 A 
ATOM     17  C15 <0> d  11     -15.557   3.639 -15.263  0.00  0.00     0.014 A 
ATOM     18  C14 <0> d  11     -16.433   4.536 -14.688  0.00  0.00     0.001 A 
ATOM     19  C13 <0> d  11     -17.799   4.356 -14.822  0.00  0.00     0.000 A 
ATOM     20  C12 <0> d  11     -18.295   3.278 -15.534  0.00  0.00     0.001 A 
ATOM     21  C11 <0> d  11     -17.429   2.377 -16.119  0.00  0.00     0.014 A 
ENDBRANCH   3  16
BRANCH   2  22
ATOM     22  C16 <0> d  11     -14.558   2.954 -18.689  0.00  0.00     0.085 C 
BRANCH  22  23
ATOM     23  C17 <0> d  11     -13.548   3.988 -18.261  0.00  0.00    -0.054 A 
ATOM     24  C22 <0> d  11     -13.613   5.270 -18.770  0.00  0.00     0.007 A 
ATOM     25  C21 <0> d  11     -12.687   6.219 -18.377  0.00  0.00     0.001 A 
ATOM     26  C20 <0> d  11     -11.696   5.883 -17.473  0.00  0.00     0.000 A 
ATOM     27  C19 <0> d  11     -11.634   4.602 -16.961  0.00  0.00     0.001 A 
ATOM     28  C18 <0> d  11     -12.557   3.652 -17.358  0.00  0.00     0.007 A 
ENDBRANCH  22  23
ENDBRANCH   2  22
TORSDOF 4
ENDMDL
