REMARK INTER + INTRA:          -7.845
REMARK INTER:                  -7.211
REMARK INTRA:                  -0.634
REMARK UNBOUND:                -0.512
REMARK  2 active torsions:
REMARK  status: ('A' for Active; 'I' for Inactive)
REMARK    1  A    between atoms: C4_4  and  C6_6 
REMARK    2  A    between atoms: C6_6  and  N1_20 
ROOT
ATOM      1  C7  <0> d  11     -13.222   0.360 -18.135  0.00  0.00     0.052 A 
ATOM      2  C8  <0> d  11     -12.765  -0.946 -18.190  0.00  0.00     0.031 A 
ATOM      3  C9  <0> d  11     -11.430  -1.203 -18.446  0.00  0.00     0.002 A 
ATOM      4  C10 <0> d  11     -10.543  -0.163 -18.646  0.00  0.00     0.002 A 
ATOM      5  C11 <0> d  11     -10.989   1.149 -18.594  0.00  0.00     0.021 A 
ATOM      6  C12 <0> d  11     -12.321   1.409 -18.340  0.00  0.00     0.032 A 
ATOM      7  C13 <0> d  11     -14.289   2.929 -17.162  0.00  0.00     0.032 A 
ATOM      8  C14 <0> d  11     -14.971   1.712 -17.087  0.00  0.00     0.052 A 
ATOM      9  C15 <0> d  11     -16.048   1.590 -16.223  0.00  0.00     0.031 A 
ATOM     10  C16 <0> d  11     -16.437   2.667 -15.447  0.00  0.00     0.002 A 
ATOM     11  C17 <0> d  11     -15.759   3.869 -15.525  0.00  0.00     0.002 A 
ATOM     12  C18 <0> d  11     -14.681   4.002 -16.385  0.00  0.00     0.021 A 
ATOM     13  N1  <0> d  11     -14.570   0.627 -17.875  0.00  0.00    -0.344 N 
ATOM     14  S1  <0> d  11     -12.918   3.069 -18.268  0.00  0.00    -0.086 SA
ENDROOT
BRANCH  13  15
ATOM     15  C6  <0> d  11     -15.593  -0.256 -18.442  0.00  0.00     0.136 C 
BRANCH  15  16
ATOM     16  C4  <0> d  11     -16.149   0.366 -19.723  0.00  0.00     0.031 C 
ATOM     17  C3  <0> d  11     -15.425  -0.206 -20.970  0.00  0.00     0.035 C 
ATOM     18  C2  <0> d  11     -16.502  -0.024 -22.069  0.00  0.00     0.234 C 
ATOM     19  N2  <0> d  11     -17.777  -0.321 -21.385  0.00  0.00    -0.074 N 
ATOM     20  C1  <0> d  11     -18.865   0.527 -21.941  0.00  0.00     0.269 C 
ATOM     21  C5  <0> d  11     -17.615  -0.061 -19.946  0.00  0.00     0.240 C 
ATOM     22  H21 <0> d  11     -18.016  -1.308 -21.528  0.00  0.00     0.279 HD
ENDBRANCH  15  16
ENDBRANCH  13  15
TORSDOF 2
ENDMDL
