REMARK INTER + INTRA:          -5.912
REMARK INTER:                  -5.810
REMARK INTRA:                  -0.102
REMARK UNBOUND:                -0.108
REMARK  3 active torsions:
REMARK  status: ('A' for Active; 'I' for Inactive)
REMARK    1  A    between atoms: C3_3  and  S1_15 
REMARK    2  A    between atoms: C6_6  and  C7_7 
REMARK    3  A    between atoms: S1_15  and  N1_10 
ROOT
ATOM      1  C1  <0> d  11     -16.638   2.573 -16.678  0.00  0.00     0.020 A 
ATOM      2  C2  <0> d  11     -17.953   2.522 -16.262  0.00  0.00     0.026 A 
ATOM      3  C3  <0> d  11     -18.395   3.361 -15.256  0.00  0.00     0.079 A 
ATOM      4  C4  <0> d  11     -17.524   4.253 -14.656  0.00  0.00     0.026 A 
ATOM      5  C5  <0> d  11     -16.205   4.311 -15.058  0.00  0.00     0.020 A 
ATOM      6  C6  <0> d  11     -15.752   3.466 -16.073  0.00  0.00     0.040 A 
ENDROOT
BRANCH   3   7
ATOM      7  S1  <0> d  11     -20.078   3.295 -14.736  0.00  0.00     0.256 S 
ATOM      8  O2  <0> d  11     -20.094   3.670 -13.365  0.00  0.00    -0.201 OA
ATOM      9  O3  <0> d  11     -20.836   3.982 -15.723  0.00  0.00    -0.201 OA
BRANCH   7  10
ATOM     10  N1  <0> d  11     -20.547   1.709 -14.798  0.00  0.00    -0.324 N 
ATOM     11  H5  <0> d  11     -20.705   1.283 -15.656  0.00  0.00     0.169 HD
ATOM     12  H6  <0> d  11     -20.663   1.204 -13.978  0.00  0.00     0.169 HD
ENDBRANCH   7  10
ENDBRANCH   3   7
BRANCH   6  13
ATOM     13  C7  <0> d  11     -14.341   3.522 -16.509  0.00  0.00     0.209 C 
ATOM     14  O1  <0> d  11     -13.972   4.402 -17.261  0.00  0.00    -0.644 OA
ATOM     15  O4  <0> d  11     -13.464   2.600 -16.069  0.00  0.00    -0.644 OA
ENDBRANCH   6  13
TORSDOF 3
ENDMDL
