MODEL 1
REMARK VINA RESULT:    -7.955      0.000      0.000
REMARK INTER + INTRA:          -9.757
REMARK INTER:                  -9.114
REMARK INTRA:                  -0.644
REMARK UNBOUND:                -0.408
REMARK  3 active torsions:
REMARK  status: ('A' for Active; 'I' for Inactive)
REMARK    1  A    between atoms: C4_4  and  C7_7 
REMARK    2  A    between atoms: C14_14  and  C16_16 
REMARK    3  A    between atoms: C16_16  and  C17_17 
ROOT
ATOM      1  C7  <0> d  11     -14.231   2.358 -16.889  0.00  0.00     0.090 A 
ATOM      2  C8  <0> d  11     -13.068   2.922 -16.464  0.00  0.00     0.093 A 
ATOM      3  C9  <0> d  11     -11.836   2.445 -16.971  0.00  0.00     0.187 A 
ATOM      4  C10 <0> d  11     -11.888   1.347 -17.957  0.00  0.00     0.048 A 
ATOM      5  C11 <0> d  11     -10.726   0.817 -18.512  0.00  0.00     0.018 A 
ATOM      6  C12 <0> d  11     -10.817  -0.208 -19.430  0.00  0.00     0.002 A 
ATOM      7  C13 <0> d  11     -12.056  -0.709 -19.799  0.00  0.00     0.010 A 
ATOM      8  C14 <0> d  11     -13.214  -0.191 -19.257  0.00  0.00    -0.013 A 
ATOM      9  C15 <0> d  11     -13.144   0.842 -18.330  0.00  0.00     0.097 A 
ATOM     10  O1  <0> d  11     -10.774   2.922 -16.609  0.00  0.00    -0.287 OA
ATOM     11  O2  <0> d  11     -14.264   1.362 -17.786  0.00  0.00    -0.308 OA
ENDROOT
BRANCH   1  12
ATOM     12  C4  <0> d  11     -15.506   2.867 -16.345  0.00  0.00    -0.002 A 
ATOM     13  C3  <0> d  11     -15.503   3.837 -15.341  0.00  0.00     0.014 A 
ATOM     14  C2  <0> d  11     -16.698   4.308 -14.838  0.00  0.00     0.001 A 
ATOM     15  C1  <0> d  11     -17.899   3.820 -15.325  0.00  0.00     0.000 A 
ATOM     16  C6  <0> d  11     -17.908   2.859 -16.320  0.00  0.00     0.001 A 
ATOM     17  C5  <0> d  11     -16.720   2.383 -16.837  0.00  0.00     0.014 A 
ENDBRANCH   1  12
BRANCH   8  18
ATOM     18  C16 <0> d  11     -14.554  -0.745 -19.669  0.00  0.00     0.154 C 
BRANCH  18  19
ATOM     19  C17 <0> d  11     -14.985  -0.105 -20.964  0.00  0.00     0.177 C 
ATOM     20  O3  <0> d  11     -15.631   0.916 -20.948  0.00  0.00    -0.648 OA
ATOM     21  O4  <0> d  11     -14.653  -0.672 -22.135  0.00  0.00    -0.648 OA
ENDBRANCH  18  19
ENDBRANCH   8  18
TORSDOF 3
ENDMDL
MODEL 2
REMARK VINA RESULT:    -7.787      2.148      2.885
REMARK INTER + INTRA:          -9.560
REMARK INTER:                  -8.924
REMARK INTRA:                  -0.635
REMARK UNBOUND:                -0.408
REMARK  3 active torsions:
REMARK  status: ('A' for Active; 'I' for Inactive)
REMARK    1  A    between atoms: C4_4  and  C7_7 
REMARK    2  A    between atoms: C14_14  and  C16_16 
REMARK    3  A    between atoms: C16_16  and  C17_17 
ROOT
ATOM      1  C7  <0> d  11     -14.455   2.822 -16.510  0.00  0.00     0.090 A 
ATOM      2  C8  <0> d  11     -13.560   3.830 -16.694  0.00  0.00     0.093 A 
ATOM      3  C9  <0> d  11     -12.261   3.530 -17.168  0.00  0.00     0.187 A 
ATOM      4  C10 <0> d  11     -11.952   2.114 -17.449  0.00  0.00     0.048 A 
ATOM      5  C11 <0> d  11     -10.700   1.726 -17.922  0.00  0.00     0.018 A 
ATOM      6  C12 <0> d  11     -10.450   0.394 -18.172  0.00  0.00     0.002 A 
ATOM      7  C13 <0> d  11     -11.437  -0.556 -17.954  0.00  0.00     0.010 A 
ATOM      8  C14 <0> d  11     -12.680  -0.184 -17.487  0.00  0.00    -0.013 A 
ATOM      9  C15 <0> d  11     -12.952   1.155 -17.229  0.00  0.00     0.097 A 
ATOM     10  O1  <0> d  11     -11.431   4.407 -17.340  0.00  0.00    -0.287 OA
ATOM     11  O2  <0> d  11     -14.161   1.539 -16.770  0.00  0.00    -0.308 OA
ENDROOT
BRANCH   1  12
ATOM     12  C4  <0> d  11     -15.804   3.154 -16.010  0.00  0.00    -0.002 A 
ATOM     13  C3  <0> d  11     -16.912   2.418 -16.439  0.00  0.00     0.014 A 
ATOM     14  C2  <0> d  11     -18.169   2.733 -15.967  0.00  0.00     0.001 A 
ATOM     15  C1  <0> d  11     -18.335   3.776 -15.072  0.00  0.00     0.000 A 
ATOM     16  C6  <0> d  11     -17.243   4.509 -14.644  0.00  0.00     0.001 A 
ATOM     17  C5  <0> d  11     -15.978   4.201 -15.103  0.00  0.00     0.014 A 
ENDBRANCH   1  12
BRANCH   8  18
ATOM     18  C16 <0> d  11     -13.743  -1.227 -17.257  0.00  0.00     0.154 C 
BRANCH  18  19
ATOM     19  C17 <0> d  11     -13.529  -1.876 -15.914  0.00  0.00     0.177 C 
ATOM     20  O3  <0> d  11     -14.011  -1.384 -14.922  0.00  0.00    -0.648 OA
ATOM     21  O4  <0> d  11     -12.800  -3.000 -15.821  0.00  0.00    -0.648 OA
ENDBRANCH  18  19
ENDBRANCH   8  18
TORSDOF 3
ENDMDL
MODEL 3
REMARK VINA RESULT:    -7.485      2.837      5.580
REMARK INTER + INTRA:          -9.206
REMARK INTER:                  -8.724
REMARK INTRA:                  -0.482
REMARK UNBOUND:                -0.408
REMARK  3 active torsions:
REMARK  status: ('A' for Active; 'I' for Inactive)
REMARK    1  A    between atoms: C4_4  and  C7_7 
REMARK    2  A    between atoms: C14_14  and  C16_16 
REMARK    3  A    between atoms: C16_16  and  C17_17 
ROOT
ATOM      1  C7  <0> d  11     -15.707   3.162 -16.673  0.00  0.00     0.090 A 
ATOM      2  C8  <0> d  11     -16.362   3.484 -15.525  0.00  0.00     0.093 A 
ATOM      3  C9  <0> d  11     -17.766   3.320 -15.455  0.00  0.00     0.187 A 
ATOM      4  C10 <0> d  11     -18.448   2.791 -16.653  0.00  0.00     0.048 A 
ATOM      5  C11 <0> d  11     -19.827   2.594 -16.675  0.00  0.00     0.018 A 
ATOM      6  C12 <0> d  11     -20.426   2.098 -17.813  0.00  0.00     0.002 A 
ATOM      7  C13 <0> d  11     -19.662   1.798 -18.930  0.00  0.00     0.010 A 
ATOM      8  C14 <0> d  11     -18.297   1.987 -18.921  0.00  0.00    -0.013 A 
ATOM      9  C15 <0> d  11     -17.673   2.486 -17.783  0.00  0.00     0.097 A 
ATOM     10  O1  <0> d  11     -18.388   3.603 -14.445  0.00  0.00    -0.287 OA
ATOM     11  O2  <0> d  11     -16.339   2.681 -17.754  0.00  0.00    -0.308 OA
ENDROOT
BRANCH   1  12
ATOM     12  C4  <0> d  11     -14.243   3.343 -16.728  0.00  0.00    -0.002 A 
ATOM     13  C3  <0> d  11     -13.395   2.383 -16.170  0.00  0.00     0.014 A 
ATOM     14  C2  <0> d  11     -12.028   2.559 -16.226  0.00  0.00     0.001 A 
ATOM     15  C1  <0> d  11     -11.496   3.684 -16.832  0.00  0.00     0.000 A 
ATOM     16  C6  <0> d  11     -12.329   4.638 -17.387  0.00  0.00     0.001 A 
ATOM     17  C5  <0> d  11     -13.699   4.473 -17.343  0.00  0.00     0.014 A 
ENDBRANCH   1  12
BRANCH   8  18
ATOM     18  C16 <0> d  11     -17.480   1.654 -20.143  0.00  0.00     0.154 C 
BRANCH  18  19
ATOM     19  C17 <0> d  11     -17.927   0.327 -20.700  0.00  0.00     0.177 C 
ATOM     20  O3  <0> d  11     -17.681  -0.694 -20.101  0.00  0.00    -0.648 OA
ATOM     21  O4  <0> d  11     -18.597   0.279 -21.862  0.00  0.00    -0.648 OA
ENDBRANCH  18  19
ENDBRANCH   8  18
TORSDOF 3
ENDMDL
MODEL 4
REMARK VINA RESULT:    -7.348      2.205      3.607
REMARK INTER + INTRA:          -9.044
REMARK INTER:                  -8.637
REMARK INTRA:                  -0.408
REMARK UNBOUND:                -0.408
REMARK  3 active torsions:
REMARK  status: ('A' for Active; 'I' for Inactive)
REMARK    1  A    between atoms: C4_4  and  C7_7 
REMARK    2  A    between atoms: C14_14  and  C16_16 
REMARK    3  A    between atoms: C16_16  and  C17_17 
ROOT
ATOM      1  C7  <0> d  11     -15.268   1.815 -16.380  0.00  0.00     0.090 A 
ATOM      2  C8  <0> d  11     -15.366   0.478 -16.607  0.00  0.00     0.093 A 
ATOM      3  C9  <0> d  11     -14.250  -0.226 -17.119  0.00  0.00     0.187 A 
ATOM      4  C10 <0> d  11     -13.019   0.548 -17.373  0.00  0.00     0.048 A 
ATOM      5  C11 <0> d  11     -11.870  -0.061 -17.874  0.00  0.00     0.018 A 
ATOM      6  C12 <0> d  11     -10.741   0.696 -18.098  0.00  0.00     0.002 A 
ATOM      7  C13 <0> d  11     -10.746   2.057 -17.828  0.00  0.00     0.010 A 
ATOM      8  C14 <0> d  11     -11.876   2.671 -17.331  0.00  0.00    -0.013 A 
ATOM      9  C15 <0> d  11     -13.026   1.925 -17.099  0.00  0.00     0.097 A 
ATOM     10  O1  <0> d  11     -14.303  -1.424 -17.340  0.00  0.00    -0.287 OA
ATOM     11  O2  <0> d  11     -14.142   2.507 -16.615  0.00  0.00    -0.308 OA
ENDROOT
BRANCH   1  12
ATOM     12  C4  <0> d  11     -16.444   2.533 -15.850  0.00  0.00    -0.002 A 
ATOM     13  C3  <0> d  11     -16.284   3.761 -15.203  0.00  0.00     0.014 A 
ATOM     14  C2  <0> d  11     -17.388   4.426 -14.711  0.00  0.00     0.001 A 
ATOM     15  C1  <0> d  11     -18.652   3.879 -14.855  0.00  0.00     0.000 A 
ATOM     16  C6  <0> d  11     -18.817   2.664 -15.495  0.00  0.00     0.001 A 
ATOM     17  C5  <0> d  11     -17.722   1.990 -15.998  0.00  0.00     0.014 A 
ENDBRANCH   1  12
BRANCH   8  18
ATOM     18  C16 <0> d  11     -11.866   4.150 -17.041  0.00  0.00     0.154 C 
BRANCH  18  19
ATOM     19  C17 <0> d  11     -12.304   4.906 -18.269  0.00  0.00     0.177 C 
ATOM     20  O3  <0> d  11     -12.688   4.305 -19.244  0.00  0.00    -0.648 OA
ATOM     21  O4  <0> d  11     -12.268   6.248 -18.278  0.00  0.00    -0.648 OA
ENDBRANCH  18  19
ENDBRANCH   8  18
TORSDOF 3
ENDMDL
MODEL 5
REMARK VINA RESULT:    -7.319      2.221      4.576
REMARK INTER + INTRA:          -9.010
REMARK INTER:                  -8.367
REMARK INTRA:                  -0.643
REMARK UNBOUND:                -0.408
REMARK  3 active torsions:
REMARK  status: ('A' for Active; 'I' for Inactive)
REMARK    1  A    between atoms: C4_4  and  C7_7 
REMARK    2  A    between atoms: C14_14  and  C16_16 
REMARK    3  A    between atoms: C16_16  and  C17_17 
ROOT
ATOM      1  C7  <0> d  11     -15.178   0.515 -19.980  0.00  0.00     0.090 A 
ATOM      2  C8  <0> d  11     -14.713  -0.560 -20.672  0.00  0.00     0.093 A 
ATOM      3  C9  <0> d  11     -13.365  -0.960 -20.515  0.00  0.00     0.187 A 
ATOM      4  C10 <0> d  11     -12.529  -0.176 -19.584  0.00  0.00     0.048 A 
ATOM      5  C11 <0> d  11     -11.191  -0.499 -19.364  0.00  0.00     0.018 A 
ATOM      6  C12 <0> d  11     -10.444   0.258 -18.488  0.00  0.00     0.002 A 
ATOM      7  C13 <0> d  11     -11.018   1.335 -17.829  0.00  0.00     0.010 A 
ATOM      8  C14 <0> d  11     -12.341   1.664 -18.037  0.00  0.00    -0.013 A 
ATOM      9  C15 <0> d  11     -13.112   0.913 -18.917  0.00  0.00     0.097 A 
ATOM     10  O1  <0> d  11     -12.912  -1.916 -21.122  0.00  0.00    -0.287 OA
ATOM     11  O2  <0> d  11     -14.407   1.219 -19.137  0.00  0.00    -0.308 OA
ENDROOT
BRANCH   1  12
ATOM     12  C4  <0> d  11     -16.586   0.921 -20.160  0.00  0.00    -0.002 A 
ATOM     13  C3  <0> d  11     -17.227   1.684 -19.182  0.00  0.00     0.014 A 
ATOM     14  C2  <0> d  11     -18.543   2.059 -19.357  0.00  0.00     0.001 A 
ATOM     15  C1  <0> d  11     -19.228   1.680 -20.499  0.00  0.00     0.000 A 
ATOM     16  C6  <0> d  11     -18.599   0.924 -21.472  0.00  0.00     0.001 A 
ATOM     17  C5  <0> d  11     -17.281   0.547 -21.312  0.00  0.00     0.014 A 
ENDBRANCH   1  12
BRANCH   8  18
ATOM     18  C16 <0> d  11     -12.951   2.836 -17.312  0.00  0.00     0.154 C 
BRANCH  18  19
ATOM     19  C17 <0> d  11     -12.516   4.118 -17.974  0.00  0.00     0.177 C 
ATOM     20  O3  <0> d  11     -11.877   4.934 -17.351  0.00  0.00    -0.648 OA
ATOM     21  O4  <0> d  11     -12.838   4.354 -19.256  0.00  0.00    -0.648 OA
ENDBRANCH  18  19
ENDBRANCH   8  18
TORSDOF 3
ENDMDL
