ZINC00001453
     RDKit          3D

 32 34  0  0  0  0  0  0  0  0999 V2000
    0.9859    4.3336   -0.2358 C   0  0  0  0  0  0  0  0  0  0  0  0
    1.6604    3.4383    0.5902 C   0  0  0  0  0  0  0  0  0  0  0  0
    1.3451    2.0778    0.5536 C   0  0  0  0  0  0  0  0  0  0  0  0
    0.3464    1.5914   -0.3051 C   0  0  0  0  0  0  0  0  0  0  0  0
   -0.3158    2.5058   -1.1399 C   0  0  0  0  0  0  0  0  0  0  0  0
   -0.0004    3.8679   -1.1027 C   0  0  0  0  0  0  0  0  0  0  0  0
    0.0436    0.1447   -0.3268 C   0  0  0  0  0  0  0  0  0  0  0  0
   -1.2009   -0.3262   -0.4880 C   0  0  0  0  0  0  0  0  0  0  0  0
   -1.4244   -1.7805   -0.4666 C   0  0  0  0  0  0  0  0  0  0  0  0
   -2.5362   -2.2455   -0.6909 O   0  0  0  0  0  0  0  0  0  0  0  0
   -0.2589   -2.6234   -0.1587 C   0  0  0  0  0  0  0  0  0  0  0  0
   -0.4026   -4.0065   -0.0153 C   0  0  0  0  0  0  0  0  0  0  0  0
    0.7092   -4.7807    0.3094 C   0  0  0  0  0  0  0  0  0  0  0  0
    1.9550   -4.1730    0.4813 C   0  0  0  0  0  0  0  0  0  0  0  0
    2.1118   -2.7862    0.3180 C   0  0  0  0  0  0  0  0  0  0  0  0
    0.9849   -2.0133    0.0030 C   0  0  0  0  0  0  0  0  0  0  0  0
    1.1542   -0.6592   -0.1394 O   0  0  0  0  0  0  0  0  0  0  0  0
    3.4705   -2.1613    0.5362 C   0  0  0  0  0  0  0  0  0  0  0  0
    3.6828   -1.7913    2.0047 C   0  0  0  0  0  0  0  0  0  0  0  0
    4.1331   -2.7233    2.7340 O   0  0  0  0  0  1  0  0  0  0  0  0
    3.4214   -0.5918    2.3104 O   0  0  0  0  0  0  0  0  0  0  0  0
    1.2355    5.3902   -0.2068 H   0  0  0  0  0  0  0  0  0  0  0  0
    2.4382    3.7853    1.2657 H   0  0  0  0  0  0  0  0  0  0  0  0
    1.8920    1.3949    1.2090 H   0  0  0  0  0  0  0  0  0  0  0  0
   -1.0743    2.1666   -1.8404 H   0  0  0  0  0  0  0  0  0  0  0  0
   -0.5208    4.5623   -1.7560 H   0  0  0  0  0  0  0  0  0  0  0  0
   -2.0743    0.2969   -0.6169 H   0  0  0  0  0  0  0  0  0  0  0  0
   -1.3761   -4.4734   -0.1364 H   0  0  0  0  0  0  0  0  0  0  0  0
    0.6088   -5.8532    0.4494 H   0  0  0  0  0  0  0  0  0  0  0  0
    2.8142   -4.7763    0.7723 H   0  0  0  0  0  0  0  0  0  0  0  0
    4.2553   -2.8601    0.2194 H   0  0  0  0  0  0  0  0  0  0  0  0
    3.5976   -1.2762   -0.0987 H   0  0  0  0  0  0  0  0  0  0  0  0
  1  6  2  0
  1  2  1  0
  2  3  2  0
  3  4  1  0
  4  5  2  0
  4  7  1  0
  5  6  1  0
  7 17  1  0
  7  8  2  0
  8  9  1  0
  9 10  2  0
  9 11  1  0
 11 16  2  0
 11 12  1  0
 12 13  2  0
 13 14  1  0
 14 15  2  0
 15 16  1  0
 15 18  1  0
 16 17  1  0
 18 19  1  0
 19 20  1  0
 19 21  2  0
  1 22  1  0
  2 23  1  0
  3 24  1  0
  5 25  1  0
  6 26  1  0
  8 27  1  0
 12 28  1  0
 13 29  1  0
 14 30  1  0
 18 31  1  0
 18 32  1  0
M  CHG  1  20  -1
M  END
>  <_TriposChargeType>  (1) 
USER_CHARGES

$$$$
