ZINC00001099
     RDKit          3D

 19 19  0  0  0  0  0  0  0  0999 V2000
   -1.3369    3.3623   -0.0484 C   0  0  0  0  0  0  0  0  0  0  0  0
   -2.5519    4.0477   -0.0888 C   0  0  0  0  0  0  0  0  0  0  0  0
   -3.7447    3.3246   -0.0358 C   0  0  0  0  0  0  0  0  0  0  0  0
   -3.7375    1.9293    0.0223 C   0  0  0  0  0  0  0  0  0  0  0  0
   -2.5166    1.2545    0.0623 C   0  0  0  0  0  0  0  0  0  0  0  0
   -1.2998    1.9592    0.0385 C   0  0  0  0  0  0  0  0  0  0  0  0
    0.0253    1.2220    0.1106 C   0  0  0  0  0  0  0  0  0  0  0  0
   -0.0239   -0.0447    0.1962 O   0  0  0  0  0  1  0  0  0  0  0  0
   -5.2896    4.1824   -0.0051 S   0  0  0  0  0  6  0  0  0  0  0  0
   -5.0836    5.5552   -0.4105 O   0  0  0  0  0  0  0  0  0  0  0  0
   -6.3103    3.3492   -0.5964 O   0  0  0  0  0  0  0  0  0  0  0  0
   -5.5856    4.2528    1.6578 N   0  0  0  0  0  0  0  0  0  0  0  0
    1.0801    1.9305    0.0906 O   0  0  0  0  0  0  0  0  0  0  0  0
   -0.3973    3.9138   -0.0792 H   0  0  0  0  0  0  0  0  0  0  0  0
   -2.5496    5.1324   -0.1509 H   0  0  0  0  0  0  0  0  0  0  0  0
   -4.6643    1.3620    0.0458 H   0  0  0  0  0  0  0  0  0  0  0  0
   -2.4954    0.1662    0.1171 H   0  0  0  0  0  0  0  0  0  0  0  0
   -4.9435    3.6544    2.1805 H   0  0  0  0  0  0  0  0  0  0  0  0
   -5.5092    5.2271    1.9522 H   0  0  0  0  0  0  0  0  0  0  0  0
  1  6  2  0
  1  2  1  0
  2  3  2  0
  3  4  1  0
  3  9  1  0
  4  5  2  0
  5  6  1  0
  6  7  1  0
  7  8  1  0
  7 13  2  0
  9 10  2  0
  9 11  2  0
  9 12  1  0
  1 14  1  0
  2 15  1  0
  4 16  1  0
  5 17  1  0
 12 18  1  0
 12 19  1  0
M  CHG  1   8  -1
M  END
>  <_TriposChargeType>  (1) 
USER_CHARGES

$$$$
