@<TRIPOS>MOLECULE
ZINC00001019
 52 55 0 0 0
SMALL
USER_CHARGES

@<TRIPOS>ATOM
      1 C1          3.6504   -4.8796   -6.5208 C.3     1  <0>11      -0.0913
      2 C2          4.4822   -2.6776   -5.9551 C.3     1  <0>11      -0.0958
      3 C3          4.5483   -1.6321   -4.8395 C.3     1  <0>11      -0.0401
      4 C4          3.1348   -1.1287   -4.5341 C.3     1  <0>11       0.0004
      5 C5          2.2518   -2.3168   -4.1427 C.3     1  <0>11      -0.0400
      6 C6          2.2523   -3.3424   -5.2786 C.3     1  <0>11      -0.0957
      7 C7          2.5648   -0.3009   -2.2376 C.2     1  <0>11       0.1254
      8 C8          2.8703    0.8348   -1.4608 C.3     1  <0>11       0.0412
      9 C9          3.6749    1.6477   -2.2017 C.3     1  <0>11      -0.0078
     10 C10         4.2256    2.9496   -1.7722 C.3     1  <0>11      -0.0339
     11 C11         5.0460    3.6822   -2.6325 C.3     1  <0>11      -0.0798
     12 C12         5.5525    4.8996   -2.2270 C.3     1  <0>11      -0.0968
     13 C13         5.2583    5.3898   -0.9670 C.3     1  <0>11      -0.0985
     14 C14         4.4508    4.6663   -0.1073 C.3     1  <0>11      -0.0930
     15 C15         3.9328    3.4503   -0.5020 C.3     1  <0>11      -0.0742
     16 C16         2.3868    1.1057   -0.0594 C.3     1  <0>11      -0.0007
     17 C17         1.0880    1.8681   -0.1146 C.3     1  <0>11      -0.1016
     18 C18         0.7552    2.7411    0.9042 C.3     1  <0>11      -0.1012
     19 C19        -0.4386    3.4364    0.8562 C.3     1  <0>11      -0.1084
     20 C20        -1.2950    3.2661   -0.2155 C.3     1  <0>11      -0.1115
     21 C21        -0.9618    2.3938   -1.2347 C.3     1  <0>11      -0.1097
     22 C22         0.2298    1.6948   -1.1843 C.3     1  <0>11      -0.1036
     23 H1          4.4242    1.3948   -4.1450 H       1  <0>11       0.3672
     24 H2          4.6709   -5.2452   -6.6343 H       1  <0>11       0.0812
     25 H3          3.0085   -5.6930   -6.1825 H       1  <0>11       0.0814
     26 H4          3.2894   -4.5064   -7.4791 H       1  <0>11       0.0826
     27 H5          4.0675   -2.2230   -6.8548 H       1  <0>11       0.0967
     28 H6          5.4854   -3.0486   -6.1651 H       1  <0>11       0.0964
     29 H7          5.1708   -0.7967   -5.1601 H       1  <0>11       0.0903
     30 H8          4.9757   -2.0824   -3.9436 H       1  <0>11       0.0664
     31 H9          2.7223   -0.6426   -5.4183 H       1  <0>11       0.1560
     32 H10         2.6431   -2.7779   -3.2359 H       1  <0>11       0.0668
     33 H11         1.2335   -1.9706   -3.9654 H       1  <0>11       0.0908
     34 H12         1.8480   -2.8847   -6.1814 H       1  <0>11       0.0966
     35 H13         1.6359   -4.1962   -4.9972 H       1  <0>11       0.0965
     36 H14         5.2799    3.2986   -3.6145 H       1  <0>11       0.1232
     37 H15         6.1837    5.4691   -2.8929 H       1  <0>11       0.1228
     38 H16         5.6607    6.3416   -0.6531 H       1  <0>11       0.1270
     39 H17         4.2251    5.0547    0.8749 H       1  <0>11       0.1272
     40 H18         3.3021    2.8869    0.1696 H       1  <0>11       0.1365
     41 H19         3.1319    1.6956    0.4744 H       1  <0>11       0.0903
     42 H20         2.2312    0.1603    0.4604 H       1  <0>11       0.0915
     43 H21         1.4257    2.8765    1.7399 H       1  <0>11       0.1193
     44 H22        -0.7007    4.1152    1.6543 H       1  <0>11       0.1123
     45 H23        -2.2262    3.8120   -0.2547 H       1  <0>11       0.1111
     46 H24        -1.6325    2.2581   -2.0703 H       1  <0>11       0.1114
     47 H25         0.4900    1.0131   -1.9805 H       1  <0>11       0.1129
     48 H26         4.0148   -4.1738   -4.6256 H       1  <0>11       0.1640
     49 N1          3.1850   -0.1704   -3.4271 N.am    1  <0>11      -0.3065
     50 N2          3.8867    1.0421   -3.4186 N.pl3   1  <0>11      -0.3247
     51 N3          3.6376   -3.8052   -5.5066 N.4     1  <0>11       0.4052
     52 O1          1.8632   -1.2359   -1.8943 O.2     1  <0>11      -0.4759
@<TRIPOS>UNITY_ATOM_ATTR
51 1
charge 1
@<TRIPOS>BOND
     1     1    24    1
     2     1    25    1
     3     1    26    1
     4     1    51    1
     5     2     3    1
     6     2    27    1
     7     2    28    1
     8     2    51    1
     9     3     4    1
    10     3    29    1
    11     3    30    1
    12     4     5    1
    13     4    49    1
    14     4    31    1
    15     5     6    1
    16     5    32    1
    17     5    33    1
    18     6    34    1
    19     6    35    1
    20     6    51    1
    21    49    50   ar
    22    49     7   ar
    23     7    52    2
    24     7     8   ar
    25     8     9   ar
    26     8    16    1
    27     9    50   ar
    28     9    10    1
    29    50    23    1
    30    10    15   ar
    31    10    11   ar
    32    11    12   ar
    33    11    36    1
    34    12    13   ar
    35    12    37    1
    36    13    14   ar
    37    13    38    1
    38    14    15   ar
    39    14    39    1
    40    15    40    1
    41    16    17    1
    42    16    41    1
    43    16    42    1
    44    17    22   ar
    45    17    18   ar
    46    18    19   ar
    47    18    43    1
    48    19    20   ar
    49    19    44    1
    50    20    21   ar
    51    20    45    1
    52    21    22   ar
    53    21    46    1
    54    22    47    1
    55    51    48    1
@<TRIPOS>MOLECULE
ZINC00001019
 52 55 0 0 0
SMALL
USER_CHARGES

@<TRIPOS>ATOM
      1 C1          3.1733   -2.4537   -8.5992 C.3     1  <0>11      -0.0913
      2 C2          1.9411   -1.7600   -6.6342 C.3     1  <0>11      -0.0958
      3 C3          1.9523   -0.7938   -5.4475 C.3     1  <0>11      -0.0401
      4 C4          3.1348   -1.1287   -4.5341 C.3     1  <0>11       0.0004
      5 C5          4.4329   -1.0459   -5.3418 C.3     1  <0>11      -0.0400
      6 C6          4.3498   -2.0049   -6.5315 C.3     1  <0>11      -0.0957
      7 C7          2.5648   -0.3009   -2.2376 C.2     1  <0>11       0.1254
      8 C8          2.8703    0.8348   -1.4608 C.3     1  <0>11       0.0412
      9 C9          3.6749    1.6477   -2.2017 C.3     1  <0>11      -0.0078
     10 C10         4.2256    2.9496   -1.7722 C.3     1  <0>11      -0.0339
     11 C11         5.0460    3.6822   -2.6325 C.3     1  <0>11      -0.0798
     12 C12         5.5525    4.8996   -2.2270 C.3     1  <0>11      -0.0968
     13 C13         5.2583    5.3898   -0.9670 C.3     1  <0>11      -0.0985
     14 C14         4.4508    4.6663   -0.1073 C.3     1  <0>11      -0.0930
     15 C15         3.9328    3.4503   -0.5020 C.3     1  <0>11      -0.0742
     16 C16         2.3868    1.1057   -0.0594 C.3     1  <0>11      -0.0007
     17 C17         1.5137   -0.0336    0.3998 C.3     1  <0>11      -0.1016
     18 C18         0.3613   -0.3455   -0.2969 C.3     1  <0>11      -0.1012
     19 C19        -0.4423   -1.3871    0.1274 C.3     1  <0>11      -0.1084
     20 C20        -0.0885   -2.1230    1.2428 C.3     1  <0>11      -0.1115
     21 C21         1.0644   -1.8117    1.9390 C.3     1  <0>11      -0.1097
     22 C22         1.8655   -0.7669    1.5176 C.3     1  <0>11      -0.1036
     23 H1          4.4242    1.3948   -4.1450 H       1  <0>11       0.3672
     24 H2          2.3593   -2.1144   -9.2398 H       1  <0>11       0.0812
     25 H3          4.1203   -2.3482   -9.1284 H       1  <0>11       0.0814
     26 H4          3.0178   -3.5003   -8.3377 H       1  <0>11       0.0826
     27 H5          1.8275   -2.7811   -6.2701 H       1  <0>11       0.0967
     28 H6          1.1088   -1.5152   -7.2941 H       1  <0>11       0.0964
     29 H7          1.0215   -0.8926   -4.8890 H       1  <0>11       0.0903
     30 H8          2.0521    0.2287   -5.8117 H       1  <0>11       0.0664
     31 H9          3.0148   -2.1371   -4.1379 H       1  <0>11       0.1560
     32 H10         4.5717   -0.0274   -5.7043 H       1  <0>11       0.0668
     33 H11         5.2745   -1.3249   -4.7077 H       1  <0>11       0.0908
     34 H12         4.2249   -3.0248   -6.1679 H       1  <0>11       0.0966
     35 H13         5.2669   -1.9379   -7.1168 H       1  <0>11       0.0965
     36 H14         5.2799    3.2986   -3.6145 H       1  <0>11       0.1232
     37 H15         6.1837    5.4691   -2.8929 H       1  <0>11       0.1228
     38 H16         5.6607    6.3416   -0.6531 H       1  <0>11       0.1270
     39 H17         4.2251    5.0547    0.8749 H       1  <0>11       0.1272
     40 H18         3.3021    2.8869    0.1696 H       1  <0>11       0.1365
     41 H19         1.8123    2.0319   -0.0459 H       1  <0>11       0.0903
     42 H20         3.2430    1.1994    0.6086 H       1  <0>11       0.0915
     43 H21         0.0864    0.2275   -1.1702 H       1  <0>11       0.1193
     44 H22        -1.3451   -1.6281   -0.4144 H       1  <0>11       0.1123
     45 H23        -0.7146   -2.9391    1.5724 H       1  <0>11       0.1111
     46 H24         1.3391   -2.3843    2.8126 H       1  <0>11       0.1114
     47 H25         2.7661   -0.5235    2.0616 H       1  <0>11       0.1129
     48 H26         3.3187   -0.6315   -7.6605 H       1  <0>11       0.1640
     49 N1          3.1850   -0.1704   -3.4271 N.am    1  <0>11      -0.3065
     50 N2          3.8867    1.0421   -3.4186 N.pl3   1  <0>11      -0.3247
     51 N3          3.2070   -1.6140   -7.3839 N.4     1  <0>11       0.4052
     52 O1          1.8632   -1.2359   -1.8943 O.2     1  <0>11      -0.4759
@<TRIPOS>UNITY_ATOM_ATTR
51 1
charge 1
@<TRIPOS>BOND
     1     1    24    1
     2     1    25    1
     3     1    26    1
     4     1    51    1
     5     2     3    1
     6     2    27    1
     7     2    28    1
     8     2    51    1
     9     3     4    1
    10     3    29    1
    11     3    30    1
    12     4     5    1
    13     4    49    1
    14     4    31    1
    15     5     6    1
    16     5    32    1
    17     5    33    1
    18     6    34    1
    19     6    35    1
    20     6    51    1
    21    49    50   ar
    22    49     7   ar
    23     7    52    2
    24     7     8   ar
    25     8     9   ar
    26     8    16    1
    27     9    50   ar
    28     9    10    1
    29    50    23    1
    30    10    15   ar
    31    10    11   ar
    32    11    12   ar
    33    11    36    1
    34    12    13   ar
    35    12    37    1
    36    13    14   ar
    37    13    38    1
    38    14    15   ar
    39    14    39    1
    40    15    40    1
    41    16    17    1
    42    16    41    1
    43    16    42    1
    44    17    22   ar
    45    17    18   ar
    46    18    19   ar
    47    18    43    1
    48    19    20   ar
    49    19    44    1
    50    20    21   ar
    51    20    45    1
    52    21    22   ar
    53    21    46    1
    54    22    47    1
    55    51    48    1
