@<TRIPOS>MOLECULE
ZINC00000480
 42 45 0 0 0
SMALL
USER_CHARGES

@<TRIPOS>ATOM
      1 C1          7.2796   -1.0777    0.5837 C.3     1  <0>11      -0.0920
      2 C2          6.4769   -0.9255    2.8712 C.3     1  <0>11      -0.1027
      3 C3          5.0674   -0.6516    3.4528 C.3     1  <0>11      -0.0616
      4 C4          4.2980   -0.1689    2.1950 C.3     1  <0>11      -0.0529
      5 C5          4.9027   -1.0296    1.0659 C.3     1  <0>11      -0.0993
      6 C6          2.7995   -0.4418    2.3398 C.3     1  <0>11      -0.0127
      7 C7          0.9297   -0.6467    0.7412 C.ar    1  <0>11      -0.0361
      8 C8          0.8113   -2.0193    0.8933 C.ar    1  <0>11      -0.0612
      9 C9         -0.3503   -2.6612    0.5006 C.ar    1  <0>11      -0.0899
     10 C10        -1.3974   -1.9427   -0.0439 C.ar    1  <0>11      -0.0916
     11 C11        -1.2901   -0.5704   -0.2002 C.ar    1  <0>11      -0.0759
     12 C12        -0.1326    0.0750    0.1908 C.ar    1  <0>11      -0.0121
     13 C13         1.7776    2.0182   -0.1870 C.ar    1  <0>11      -0.0129
     14 C14         2.6286    1.0803    0.4039 C.ar    1  <0>11      -0.0381
     15 C15         4.0000    1.2226    0.2609 C.ar    1  <0>11      -0.0640
     16 C16         4.5132    2.2855   -0.4621 C.ar    1  <0>11      -0.0922
     17 C17         3.6673    3.2096   -1.0449 C.ar    1  <0>11      -0.0926
     18 C18         2.2950    3.0772   -0.9081 C.ar    1  <0>11      -0.0763
     19 H1          4.4795    0.8901    2.0118 H       1  <0>11       0.0848
     20 H2          7.2925    0.0091    0.5006 H       1  <0>11       0.0799
     21 H3          8.2466   -1.4258    0.9466 H       1  <0>11       0.0817
     22 H4          7.0801   -1.5146   -0.3948 H       1  <0>11       0.0807
     23 H5          7.0086   -1.6484    3.4899 H       1  <0>11       0.0935
     24 H6          7.0440    0.0024    2.7980 H       1  <0>11       0.0918
     25 H7          5.1034    0.1295    4.2121 H       1  <0>11       0.0836
     26 H8          4.6265   -1.5641    3.8540 H       1  <0>11       0.0707
     27 H9          4.2623   -1.8900    0.8719 H       1  <0>11       0.0872
     28 H10         5.0091   -0.4320    0.1606 H       1  <0>11       0.0927
     29 H11         2.4137    0.0979    3.2046 H       1  <0>11       0.1260
     30 H12         2.6364   -1.5109    2.4763 H       1  <0>11       0.1222
     31 H13         1.6255   -2.5879    1.3179 H       1  <0>11       0.1270
     32 H14        -0.4387   -3.7309    0.6203 H       1  <0>11       0.1329
     33 H15        -2.3002   -2.4515   -0.3483 H       1  <0>11       0.1268
     34 H16        -2.1077   -0.0074   -0.6255 H       1  <0>11       0.1411
     35 H17         4.6676    0.5047    0.7141 H       1  <0>11       0.1247
     36 H18         5.5823    2.3930   -0.5715 H       1  <0>11       0.1316
     37 H19         4.0762    4.0356   -1.6078 H       1  <0>11       0.1261
     38 H20         1.6325    3.7983   -1.3636 H       1  <0>11       0.1413
     39 H21         6.2105   -2.5217    1.5990 H       1  <0>11       0.1660
     40 N1          2.1023    0.0083    1.1325 N.pl3   1  <0>11      -0.4149
     41 N2          6.2173   -1.4970    1.5348 N.4     1  <0>11       0.4052
     42 S1          0.0332    1.8231    0.0048 S.3     1  <0>11      -0.1385
@<TRIPOS>UNITY_ATOM_ATTR
41 1
charge 1
@<TRIPOS>BOND
     1     1    20    1
     2     1    21    1
     3     1    22    1
     4     1    41    1
     5     2     3    1
     6     2    23    1
     7     2    24    1
     8     2    41    1
     9     3     4    1
    10     3    25    1
    11     3    26    1
    12     4    19    1
    13     4     5    1
    14     4     6    1
    15     5    27    1
    16     5    28    1
    17     5    41    1
    18     6    40    1
    19     6    29    1
    20     6    30    1
    21    40    14    1
    22    40     7    1
    23     7    12   ar
    24     7     8   ar
    25     8     9   ar
    26     8    31    1
    27     9    10   ar
    28     9    32    1
    29    10    11   ar
    30    10    33    1
    31    11    12   ar
    32    11    34    1
    33    12    42    1
    34    42    13    1
    35    13    18   ar
    36    13    14   ar
    37    14    15   ar
    38    15    16   ar
    39    15    35    1
    40    16    17   ar
    41    16    36    1
    42    17    18   ar
    43    17    37    1
    44    18    38    1
    45    41    39    1
@<TRIPOS>MOLECULE
ZINC00000480
 42 45 0 0 0
SMALL
USER_CHARGES

@<TRIPOS>ATOM
      1 C1          3.5147   -4.8298    4.2876 C.3     1  <0>11      -0.0920
      2 C2          3.4235   -4.1176    1.9671 C.3     1  <0>11      -0.1027
      3 C3          3.1259   -2.7406    1.3226 C.3     1  <0>11      -0.0616
      4 C4          2.5706   -1.9424    2.5314 C.3     1  <0>11      -0.0529
      5 C5          3.4070   -2.4753    3.7137 C.3     1  <0>11      -0.0993
      6 C6          2.7995   -0.4418    2.3398 C.3     1  <0>11      -0.0127
      7 C7          0.9297   -0.6467    0.7412 C.ar    1  <0>11      -0.0361
      8 C8          0.8113   -2.0193    0.8933 C.ar    1  <0>11      -0.0612
      9 C9         -0.3503   -2.6612    0.5006 C.ar    1  <0>11      -0.0899
     10 C10        -1.3974   -1.9427   -0.0439 C.ar    1  <0>11      -0.0916
     11 C11        -1.2901   -0.5704   -0.2002 C.ar    1  <0>11      -0.0759
     12 C12        -0.1326    0.0750    0.1908 C.ar    1  <0>11      -0.0121
     13 C13         1.7776    2.0182   -0.1870 C.ar    1  <0>11      -0.0129
     14 C14         2.6286    1.0803    0.4039 C.ar    1  <0>11      -0.0381
     15 C15         4.0000    1.2226    0.2609 C.ar    1  <0>11      -0.0640
     16 C16         4.5132    2.2855   -0.4621 C.ar    1  <0>11      -0.0922
     17 C17         3.6673    3.2096   -1.0449 C.ar    1  <0>11      -0.0926
     18 C18         2.2950    3.0772   -0.9081 C.ar    1  <0>11      -0.0763
     19 H1          1.5119   -2.1532    2.6823 H       1  <0>11       0.0848
     20 H2          2.4265   -4.8768    4.3311 H       1  <0>11       0.0799
     21 H3          3.9079   -5.7970    3.9749 H       1  <0>11       0.0817
     22 H4          3.9071   -4.5795    5.2732 H       1  <0>11       0.0807
     23 H5          4.1866   -4.6467    1.3962 H       1  <0>11       0.0935
     24 H6          2.5126   -4.7130    2.0277 H       1  <0>11       0.0918
     25 H7          2.3759   -2.8313    0.5369 H       1  <0>11       0.0836
     26 H8          4.0381   -2.2839    0.9387 H       1  <0>11       0.0707
     27 H9          4.2379   -1.7991    3.9148 H       1  <0>11       0.0872
     28 H10         2.7792   -2.5686    4.5998 H       1  <0>11       0.0927
     29 H11         3.8670   -0.2473    2.2367 H       1  <0>11       0.1260
     30 H12         2.4137    0.0980    3.2047 H       1  <0>11       0.1222
     31 H13         1.6255   -2.5879    1.3179 H       1  <0>11       0.1270
     32 H14        -0.4387   -3.7309    0.6203 H       1  <0>11       0.1329
     33 H15        -2.3002   -2.4515   -0.3483 H       1  <0>11       0.1268
     34 H16        -2.1077   -0.0074   -0.6255 H       1  <0>11       0.1411
     35 H17         4.6676    0.5047    0.7141 H       1  <0>11       0.1247
     36 H18         5.5823    2.3930   -0.5715 H       1  <0>11       0.1316
     37 H19         4.0762    4.0356   -1.6078 H       1  <0>11       0.1261
     38 H20         1.6325    3.7983   -1.3636 H       1  <0>11       0.1413
     39 H21         4.9605   -3.7499    3.2863 H       1  <0>11       0.1660
     40 N1          2.1023    0.0083    1.1325 N.pl3   1  <0>11      -0.4149
     41 N2          3.9348   -3.7895    3.3128 N.4     1  <0>11       0.4052
     42 S1          0.0332    1.8231    0.0048 S.3     1  <0>11      -0.1385
@<TRIPOS>UNITY_ATOM_ATTR
41 1
charge 1
@<TRIPOS>BOND
     1     1    20    1
     2     1    21    1
     3     1    22    1
     4     1    41    1
     5     2     3    1
     6     2    23    1
     7     2    24    1
     8     2    41    1
     9     3     4    1
    10     3    25    1
    11     3    26    1
    12     4    19    1
    13     4     5    1
    14     4     6    1
    15     5    27    1
    16     5    28    1
    17     5    41    1
    18     6    40    1
    19     6    29    1
    20     6    30    1
    21    40    14    1
    22    40     7    1
    23     7    12   ar
    24     7     8   ar
    25     8     9   ar
    26     8    31    1
    27     9    10   ar
    28     9    32    1
    29    10    11   ar
    30    10    33    1
    31    11    12   ar
    32    11    34    1
    33    12    42    1
    34    42    13    1
    35    13    18   ar
    36    13    14   ar
    37    14    15   ar
    38    15    16   ar
    39    15    35    1
    40    16    17   ar
    41    16    36    1
    42    17    18   ar
    43    17    37    1
    44    18    38    1
    45    41    39    1
