@<TRIPOS>MOLECULE
ZINC00000480
   42    45     0     0     0
SMALL
USER_CHARGES
10-[(1-methylpyrrolidin-3-yl)methyl]phenothiazine
@<TRIPOS>ATOM
      1 C1          1.7001    3.1990    5.3557 C.3       1 <0>        -0.0391
      2 C2          2.6253    0.9965    5.7953 C.3       1 <0>        -0.0070
      3 C3          2.9163   -0.2044    4.8609 C.3       1 <0>        -0.1380
      4 C4          2.1680    0.2158    3.5685 C.3       1 <0>        -0.1228
      5 C5          2.3687    1.7455    3.5323 C.3       1 <0>        -0.0088
      6 C6          2.7995   -0.4418    2.3398 C.3       1 <0>         0.1293
      7 C7          0.9297   -0.6467    0.7412 C.ar      1 <0>         0.1788
      8 C8          0.8113   -2.0193    0.8933 C.ar      1 <0>        -0.1458
      9 C9         -0.3503   -2.6612    0.5006 C.ar      1 <0>        -0.0788
     10 C10        -1.3974   -1.9427   -0.0439 C.ar      1 <0>        -0.1256
     11 C11        -1.2901   -0.5704   -0.2002 C.ar      1 <0>        -0.0577
     12 C12        -0.1326    0.0750    0.1908 C.ar      1 <0>        -0.1481
     13 C13         1.7776    2.0182   -0.1870 C.ar      1 <0>        -0.1492
     14 C14         2.6286    1.0803    0.4039 C.ar      1 <0>         0.1771
     15 C15         4.0000    1.2226    0.2609 C.ar      1 <0>        -0.1547
     16 C16         4.5132    2.2855   -0.4621 C.ar      1 <0>        -0.0803
     17 C17         3.6673    3.2096   -1.0449 C.ar      1 <0>        -0.1273
     18 C18         2.2950    3.0772   -0.9081 C.ar      1 <0>        -0.0571
     19 H1          1.1088   -0.0325    3.6352 H         1 <0>         0.1108
     20 H2          0.6920    2.7855    5.3258 H         1 <0>         0.1210
     21 H3          1.9383    3.5021    6.3752 H         1 <0>         0.1235
     22 H4          1.7572    4.0651    4.6964 H         1 <0>         0.1222
     23 H5          3.3942    1.0741    6.5640 H         1 <0>         0.1362
     24 H6          1.6408    0.8926    6.2513 H         1 <0>         0.1339
     25 H7          2.5024   -1.1262    5.2695 H         1 <0>         0.1197
     26 H8          3.9859   -0.3061    4.6774 H         1 <0>         0.1017
     27 H9          3.2056    1.9944    2.8799 H         1 <0>         0.1271
     28 H10         1.4602    2.2303    3.1750 H         1 <0>         0.1348
     29 H11         2.7166   -1.5253    2.4246 H         1 <0>         0.0989
     30 H12         3.8511   -0.1616    2.2778 H         1 <0>         0.0936
     31 H13         1.6255   -2.5879    1.3179 H         1 <0>         0.1296
     32 H14        -0.4387   -3.7309    0.6203 H         1 <0>         0.1344
     33 H15        -2.3002   -2.4515   -0.3483 H         1 <0>         0.1362
     34 H16        -2.1077   -0.0074   -0.6255 H         1 <0>         0.1372
     35 H17         4.6676    0.5047    0.7141 H         1 <0>         0.1297
     36 H18         5.5823    2.3930   -0.5715 H         1 <0>         0.1338
     37 H19         4.0762    4.0356   -1.6078 H         1 <0>         0.1359
     38 H20         1.6325    3.7983   -1.3636 H         1 <0>         0.1375
     39 H21         3.6218    2.5773    4.9318 H         1 <0>         0.4312
     40 N1          2.1023    0.0083    1.1325 N.pl3     1 <0>        -0.5820
     41 N2          2.6779    2.1740    4.9061 N.4       1 <0>        -0.3972
     42 S1          0.0332    1.8231    0.0048 S.3       1 <0>         0.0054
@<TRIPOS>BOND
     1    1   20 1
     2    1   21 1
     3    1   22 1
     4    1   41 1
     5    2    3 1
     6    2   23 1
     7    2   24 1
     8    2   41 1
     9    3    4 1
    10    3   25 1
    11    3   26 1
    12    4   19 1
    13    4    5 1
    14    4    6 1
    15    5   27 1
    16    5   28 1
    17    5   41 1
    18    6   40 1
    19    6   29 1
    20    6   30 1
    21   40   14 1
    22   40    7 1
    23    7   12 ar
    24    7    8 ar
    25    8    9 ar
    26    8   31 1
    27    9   10 ar
    28    9   32 1
    29   10   11 ar
    30   10   33 1
    31   11   12 ar
    32   11   34 1
    33   12   42 1
    34   42   13 1
    35   13   18 ar
    36   13   14 ar
    37   14   15 ar
    38   15   16 ar
    39   15   35 1
    40   16   17 ar
    41   16   36 1
    42   17   18 ar
    43   17   37 1
    44   18   38 1
    45   41   39 1
