@<TRIPOS>MOLECULE
ZINC00001019
 52 55 0 0 0
SMALL
USER_CHARGES

@<TRIPOS>ATOM
      1  C1         3.9862   -2.7095   -8.4146 C.3     1  <0>1       -0.0913
      2  C2         2.5471   -1.4373   -6.9410 C.3     1  <0>1       -0.0958
      3  C3         2.5407   -0.4502   -5.7716 C.3     1  <0>1       -0.0401
      4  C4         3.1348   -1.1287   -4.5341 C.3     1  <0>1        0.0004
      5  C5         4.5513   -1.6119   -4.8572 C.3     1  <0>1       -0.0400
      6  C6         4.4994   -2.5654   -6.0531 C.3     1  <0>1       -0.0957
      7  C7         2.5648   -0.3009   -2.2376 C.2     1  <0>1        0.1254
      8  C8         2.8703    0.8348   -1.4608 C.2     1  <0>1        0.0412
      9  C9         3.6749    1.6477   -2.2017 C.2     1  <0>1       -0.0078
     10  C10        4.2256    2.9496   -1.7722 C.3     1  <0>1       -0.0339
     11  C11        4.1420    4.0591   -2.6159 C.3     1  <0>1       -0.0798
     12  C12        4.6536    5.2730   -2.2064 C.3     1  <0>1       -0.0968
     13  C13        5.2583    5.3899   -0.9674 C.3     1  <0>1       -0.0985
     14  C14        5.3497    4.2931   -0.1287 C.3     1  <0>1       -0.0930
     15  C15        4.8372    3.0747   -0.5232 C.3     1  <0>1       -0.0742
     16  C16        2.3868    1.1057   -0.0594 C.3     1  <0>1       -0.0007
     17  C17        1.0213    1.7410   -0.1131 C.3     1  <0>1       -0.1016
     18  C18       -0.1109    0.9479   -0.1027 C.3     1  <0>1       -0.1012
     19  C19       -1.3633    1.5304   -0.1573 C.3     1  <0>1       -0.1084
     20  C20       -1.4838    2.9064   -0.2126 C.3     1  <0>1       -0.1115
     21  C21       -0.3517    3.6995   -0.2221 C.3     1  <0>1       -0.1097
     22  C22        0.9009    3.1168   -0.1724 C.3     1  <0>1       -0.1036
     23  H1         4.4242    1.3948   -4.1450 H       1  <0>1        0.3672
     24  H2         3.6229   -2.1432   -9.2721 H       1  <0>1        0.0812
     25  H3         5.0173   -3.0154   -8.5915 H       1  <0>1        0.0814
     26  H4         3.3642   -3.5933   -8.2729 H       1  <0>1        0.0826
     27  H5         1.9377   -2.3047   -6.6875 H       1  <0>1        0.0967
     28  H6         2.1380   -0.9528   -7.8276 H       1  <0>1        0.0964
     29  H7         1.5166   -0.1419   -5.5613 H       1  <0>1        0.0903
     30  H8         3.1388    0.4237   -6.0298 H       1  <0>1        0.0664
     31  H9         2.5142   -1.9792   -4.2518 H       1  <0>1        0.1560
     32  H10        5.1810   -0.7563   -5.1010 H       1  <0>1        0.0668
     33  H11        4.9637   -2.1336   -3.9935 H       1  <0>1        0.0908
     34  H12        3.8808   -3.4275   -5.8037 H       1  <0>1        0.0966
     35  H13        5.5082   -2.9002   -6.2947 H       1  <0>1        0.0965
     36  H14        3.6742    3.9681   -3.5850 H       1  <0>1        0.1232
     37  H15        4.5859    6.1329   -2.8562 H       1  <0>1        0.1228
     38  H16        5.6606    6.3417   -0.6533 H       1  <0>1        0.1270
     39  H17        5.8230    4.3913    0.8371 H       1  <0>1        0.1272
     40  H18        4.9085    2.2196    0.1326 H       1  <0>1        0.1365
     41  H19        3.0818    1.7801    0.4408 H       1  <0>1        0.0903
     42  H20        2.3296    0.1677    0.4929 H       1  <0>1        0.0915
     43  H21       -0.0168   -0.1270   -0.0564 H       1  <0>1        0.1193
     44  H22       -2.2478    0.9106   -0.1536 H       1  <0>1        0.1123
     45  H23       -2.4624    3.3617   -0.2518 H       1  <0>1        0.1111
     46  H24       -0.4457    4.7744   -0.2688 H       1  <0>1        0.1114
     47  H25        1.7854    3.7364   -0.1801 H       1  <0>1        0.1129
     48  H26        4.5056   -1.0052   -7.3909 H       1  <0>1        0.1640
     49  N1         3.1850   -0.1704   -3.4271 N.am    1  <0>1       -0.3065
     50  N2         3.8867    1.0421   -3.4186 N.pl3   1  <0>1       -0.3247
     51  N3         3.9412   -1.8451   -7.2171 N.4     1  <0>1        0.4052
     52  O1         1.8632   -1.2359   -1.8943 O.2     1  <0>1       -0.4759
@<TRIPOS>UNITY_ATOM_ATTR
51 1
charge 1
@<TRIPOS>BOND
     1     1    24    1
     2     1    25    1
     3     1    26    1
     4     1    51    1
     5     2     3    1
     6     2    27    1
     7     2    28    1
     8     2    51    1
     9     3     4    1
    10     3    29    1
    11     3    30    1
    12     4     5    1
    13     4    49    1
    14     4    31    1
    15     5     6    1
    16     5    32    1
    17     5    33    1
    18     6    34    1
    19     6    35    1
    20     6    51    1
    21    49    50   ar
    22    49     7   ar
    23     7    52    2
    24     7     8   ar
    25     8     9   ar
    26     8    16    1
    27     9    50   ar
    28     9    10    1
    29    50    23    1
    30    10    15   ar
    31    10    11   ar
    32    11    12   ar
    33    11    36    1
    34    12    13   ar
    35    12    37    1
    36    13    14   ar
    37    13    38    1
    38    14    15   ar
    39    14    39    1
    40    15    40    1
    41    16    17    1
    42    16    41    1
    43    16    42    1
    44    17    22   ar
    45    17    18   ar
    46    18    19   ar
    47    18    43    1
    48    19    20   ar
    49    19    44    1
    50    20    21   ar
    51    20    45    1
    52    21    22   ar
    53    21    46    1
    54    22    47    1
    55    51    48    1
