@<TRIPOS>MOLECULE
ZINC00001099
 19 19 0 0 0
SMALL
USER_CHARGES

@<TRIPOS>ATOM
      1 C1         -1.3262    3.3277    0.0322 C.3     1  <0>11      -0.0572
      2 C2         -2.5336    3.9948    0.0357 C.3     1  <0>11      -0.0104
      3 C3         -3.7205    3.2836    0.0374 C.3     1  <0>11       0.2452
      4 C4         -3.7054    1.9000    0.0299 C.3     1  <0>11      -0.0127
      5 C5         -2.5051    1.2203    0.0206 C.3     1  <0>11      -0.0603
      6 C6         -1.3036    1.9317    0.0187 C.3     1  <0>11       0.0277
      7 C7         -0.0144    1.2105    0.0087 C.3     1  <0>11       0.1100
      8 H1         -0.4005    3.8840    0.0353 H       1  <0>11       0.1407
      9 H2         -2.5525    5.0746    0.0412 H       1  <0>11       0.1398
     10 H3         -4.6355    1.3511    0.0310 H       1  <0>11       0.1383
     11 H4         -2.4947    0.1404    0.0143 H       1  <0>11       0.1355
     12 H5         -5.5258    6.3914   -0.3584 H       1  <0>11       0.3037
     13 H6         -4.0989    6.0841    0.4736 H       1  <0>11       0.3036
     14 N1         -4.9134    5.7634    0.0556 N.3     1  <0>11      -0.1225
     15 O1          0.9999    1.7745    0.3675 O.2     1  <0>11      -0.5355
     16 O2         -5.8872    3.8677   -1.1952 O.2     1  <0>11      -0.4015
     17 O3         -5.8760    3.8548    1.2955 O.2     1  <0>11      -0.4008
     18 O4          0.0354   -0.0744   -0.3930 O.2     1  <0>11      -0.6135
     19 S1         -5.2583    4.1438    0.0488 S.O2    1  <0>11      -0.3300
@<TRIPOS>UNITY_ATOM_ATTR
15 1
charge -1
@<TRIPOS>BOND
     1     1     6   ar
     2     1     2   ar
     3     1     8    1
     4     2     3   ar
     5     2     9    1
     6     3     4   ar
     7     3    19    1
     8     4     5   ar
     9     4    10    1
    10     5     6   ar
    11     5    11    1
    12     6     7    1
    13     7    15    1
    14     7    18    2
    15    19    16    2
    16    19    17    2
    17    19    14    1
    18    14    12    1
    19    14    13    1
@<TRIPOS>MOLECULE
ZINC00001099
 19 19 0 0 0
SMALL
USER_CHARGES

@<TRIPOS>ATOM
      1 C1         -1.3262    3.3277    0.0322 C.3     1  <0>11      -0.0572
      2 C2         -2.5336    3.9948    0.0357 C.3     1  <0>11      -0.0104
      3 C3         -3.7205    3.2836    0.0374 C.3     1  <0>11       0.2452
      4 C4         -3.7054    1.9000    0.0299 C.3     1  <0>11      -0.0127
      5 C5         -2.5051    1.2203    0.0206 C.3     1  <0>11      -0.0603
      6 C6         -1.3036    1.9317    0.0187 C.3     1  <0>11       0.0277
      7 C7         -0.0144    1.2105    0.0087 C.3     1  <0>11       0.1100
      8 H1         -0.4005    3.8840    0.0353 H       1  <0>11       0.1407
      9 H2         -2.5525    5.0746    0.0412 H       1  <0>11       0.1398
     10 H3         -4.6355    1.3511    0.0310 H       1  <0>11       0.1383
     11 H4         -2.4947    0.1404    0.0143 H       1  <0>11       0.1355
     12 H5         -5.5258    6.3914   -0.3584 H       1  <0>11       0.3037
     13 H6         -4.0989    6.0841    0.4736 H       1  <0>11       0.3036
     14 N1         -4.9134    5.7634    0.0556 N.3     1  <0>11      -0.1225
     15 O1          1.0293    1.8320    0.0122 O.2     1  <0>11      -0.5355
     16 O2         -5.8872    3.8677   -1.1952 O.2     1  <0>11      -0.4015
     17 O3         -5.8760    3.8548    1.2955 O.2     1  <0>11      -0.4008
     18 O4          0.0037   -0.1365    0.0014 O.2     1  <0>11      -0.6135
     19 S1         -5.2583    4.1438    0.0488 S.O2    1  <0>11      -0.3300
@<TRIPOS>UNITY_ATOM_ATTR
15 1
charge -1
@<TRIPOS>BOND
     1     1     6   ar
     2     1     2   ar
     3     1     8    1
     4     2     3   ar
     5     2     9    1
     6     3     4   ar
     7     3    19    1
     8     4     5   ar
     9     4    10    1
    10     5     6   ar
    11     5    11    1
    12     6     7    1
    13     7    15    1
    14     7    18    2
    15    19    16    2
    16    19    17    2
    17    19    14    1
    18    14    12    1
    19    14    13    1
