ZINC00001019
     RDKit          3D

 52 55  0  0  0  0  0  0  0  0999 V2000
    3.2030   -2.3074   -8.3786 C   0  0  0  0  0  0  0  0  0  0  0  0
    2.1960   -1.4540   -6.2641 C   0  0  0  0  0  0  0  0  0  0  0  0
    2.4804   -0.6298   -5.0229 C   0  0  0  0  0  0  0  0  0  0  0  0
    3.6185   -1.2500   -4.2006 C   0  0  0  0  0  0  0  0  0  0  0  0
    4.8763   -1.4159   -5.0556 C   0  0  0  0  0  0  0  0  0  0  0  0
    4.5795   -2.2364   -6.2995 C   0  0  0  0  0  0  0  0  0  0  0  0
    3.8748   -0.5002   -2.9819 N   0  0  0  0  0  0  0  0  0  0  0  0
    2.9302   -0.5034   -1.9443 C   0  0  0  0  0  0  0  0  0  0  0  0
    2.1221   -1.3829   -1.6991 O   0  0  0  0  0  0  0  0  0  0  0  0
    3.0375    0.7972   -1.2448 C   0  0  0  0  0  0  0  0  0  0  0  0
    3.9469    1.4827   -1.9557 C   0  0  0  0  0  0  0  0  0  0  0  0
    4.4138    0.7973   -3.0723 N   0  0  0  0  0  0  0  0  0  0  0  0
    4.4550    2.8228   -1.6649 C   0  0  0  0  0  0  0  0  0  0  0  0
    4.2401    3.8637   -2.5774 C   0  0  0  0  0  0  0  0  0  0  0  0
    4.7215    5.1471   -2.3118 C   0  0  0  0  0  0  0  0  0  0  0  0
    5.4256    5.3976   -1.1355 C   0  0  0  0  0  0  0  0  0  0  0  0
    5.6503    4.3669   -0.2246 C   0  0  0  0  0  0  0  0  0  0  0  0
    5.1685    3.0831   -0.4882 C   0  0  0  0  0  0  0  0  0  0  0  0
    2.2475    1.1199   -0.0312 C   0  0  0  0  0  0  0  0  0  0  0  0
    0.8934    1.7015   -0.3643 C   0  0  0  0  0  0  0  0  0  0  0  0
   -0.2157    0.8642   -0.5510 C   0  0  0  0  0  0  0  0  0  0  0  0
   -1.4614    1.4023   -0.8772 C   0  0  0  0  0  0  0  0  0  0  0  0
   -1.6096    2.7799   -1.0261 C   0  0  0  0  0  0  0  0  0  0  0  0
   -0.5124    3.6212   -0.8513 C   0  0  0  0  0  0  0  0  0  0  0  0
    0.7343    3.0858   -0.5243 C   0  0  0  0  0  0  0  0  0  0  0  0
    3.4604   -1.5900   -7.0794 N   0  0  0  0  0  4  0  0  0  0  0  0
    2.8721   -3.3252   -8.1558 H   0  0  0  0  0  0  0  0  0  0  0  0
    2.4340   -1.7543   -8.9241 H   0  0  0  0  0  0  0  0  0  0  0  0
    4.1340   -2.3134   -8.9515 H   0  0  0  0  0  0  0  0  0  0  0  0
    1.8496   -2.4634   -6.0155 H   0  0  0  0  0  0  0  0  0  0  0  0
    1.4512   -0.9575   -6.8947 H   0  0  0  0  0  0  0  0  0  0  0  0
    2.7380    0.3973   -5.3125 H   0  0  0  0  0  0  0  0  0  0  0  0
    1.5658   -0.5611   -4.4222 H   0  0  0  0  0  0  0  0  0  0  0  0
    3.2918   -2.2489   -3.8794 H   0  0  0  0  0  0  0  0  0  0  0  0
    5.2726   -0.4361   -5.3516 H   0  0  0  0  0  0  0  0  0  0  0  0
    5.6641   -1.9073   -4.4720 H   0  0  0  0  0  0  0  0  0  0  0  0
    5.4564   -2.2733   -6.9542 H   0  0  0  0  0  0  0  0  0  0  0  0
    4.2667   -3.2568   -6.0513 H   0  0  0  0  0  0  0  0  0  0  0  0
    5.4378    0.8252   -3.0853 H   0  0  0  0  0  0  0  0  0  0  0  0
    3.6830    3.6850   -3.4941 H   0  0  0  0  0  0  0  0  0  0  0  0
    4.5436    5.9537   -3.0189 H   0  0  0  0  0  0  0  0  0  0  0  0
    5.7984    6.3979   -0.9268 H   0  0  0  0  0  0  0  0  0  0  0  0
    6.2002    4.5647    0.6928 H   0  0  0  0  0  0  0  0  0  0  0  0
    5.3580    2.2917    0.2337 H   0  0  0  0  0  0  0  0  0  0  0  0
    2.1210    0.2218    0.5870 H   0  0  0  0  0  0  0  0  0  0  0  0
    2.7889    1.8237    0.6121 H   0  0  0  0  0  0  0  0  0  0  0  0
   -0.1151   -0.2142   -0.4396 H   0  0  0  0  0  0  0  0  0  0  0  0
   -2.3182    0.7464   -1.0085 H   0  0  0  0  0  0  0  0  0  0  0  0
   -2.5819    3.1989   -1.2723 H   0  0  0  0  0  0  0  0  0  0  0  0
   -0.6291    4.6962   -0.9630 H   0  0  0  0  0  0  0  0  0  0  0  0
    1.5796    3.7578   -0.3891 H   0  0  0  0  0  0  0  0  0  0  0  0
    3.7648   -0.6391   -7.3343 H   0  0  0  0  0  0  0  0  0  0  0  0
  1 26  1  0
  2  3  1  0
  2 26  1  0
  3  4  1  0
  4  5  1  0
  4  7  1  0
  5  6  1  0
  6 26  1  0
  7 12  1  0
  7  8  1  0
  8  9  2  0
  8 10  1  0
 10 11  2  0
 10 19  1  0
 11 12  1  0
 11 13  1  0
 13 18  1  0
 13 14  2  0
 14 15  1  0
 15 16  2  0
 16 17  1  0
 17 18  2  0
 19 20  1  0
 20 25  1  0
 20 21  2  0
 21 22  1  0
 22 23  2  0
 23 24  1  0
 24 25  2  0
  1 27  1  0
  1 28  1  0
  1 29  1  0
  2 30  1  0
  2 31  1  0
  3 32  1  0
  3 33  1  0
  4 34  1  0
  5 35  1  0
  5 36  1  0
  6 37  1  0
  6 38  1  0
 12 39  1  0
 14 40  1  0
 15 41  1  0
 16 42  1  0
 17 43  1  0
 18 44  1  0
 19 45  1  0
 19 46  1  0
 21 47  1  0
 22 48  1  0
 23 49  1  0
 24 50  1  0
 25 51  1  0
 26 52  1  0
M  CHG  1  26   1
M  END
>  <_TriposChargeType>  (1) 
USER_CHARGES

$$$$
