ZINC00000480
     RDKit          3D

 42 45  0  0  0  0  0  0  0  0999 V2000
    0.9633    2.7395    5.2472 C   0  0  0  0  0  0  0  0  0  0  0  0
    2.5031    0.7998    5.7146 C   0  0  0  0  0  0  0  0  0  0  0  0
    3.1546   -0.1539    4.7310 C   0  0  0  0  0  0  0  0  0  0  0  0
    2.4048    0.1401    3.4383 C   0  0  1  0  0  0  0  0  0  0  0  0
    2.3463    1.6609    3.4275 C   0  0  0  0  0  0  0  0  0  0  0  0
    3.0808   -0.4554    2.1950 C   0  0  0  0  0  0  0  0  0  0  0  0
    2.3699   -0.0742    0.9550 N   0  0  0  0  0  0  0  0  0  0  0  0
    1.0376   -0.5511    0.8225 C   0  0  0  0  0  0  0  0  0  0  0  0
    0.7121   -1.8852    1.1373 C   0  0  0  0  0  0  0  0  0  0  0  0
   -0.5917   -2.3720    1.0054 C   0  0  0  0  0  0  0  0  0  0  0  0
   -1.6015   -1.5372    0.5458 C   0  0  0  0  0  0  0  0  0  0  0  0
   -1.3044   -0.2191    0.2093 C   0  0  0  0  0  0  0  0  0  0  0  0
    0.0041    0.2743    0.3343 C   0  0  0  0  0  0  0  0  0  0  0  0
    0.2679    1.9887   -0.0779 S   0  0  0  0  0  0  0  0  0  0  0  0
    2.0363    2.0288   -0.2965 C   0  0  0  0  0  0  0  0  0  0  0  0
    2.8847    1.0414    0.2441 C   0  0  0  0  0  0  0  0  0  0  0  0
    4.2666    1.1691    0.0028 C   0  0  0  0  0  0  0  0  0  0  0  0
    4.7916    2.2581   -0.6989 C   0  0  0  0  0  0  0  0  0  0  0  0
    3.9430    3.2404   -1.1911 C   0  0  0  0  0  0  0  0  0  0  0  0
    2.5694    3.1237   -0.9951 C   0  0  0  0  0  0  0  0  0  0  0  0
    2.2448    2.0472    4.8977 N   0  0  1  0  0  4  0  0  0  0  0  0
    0.9919    2.9796    6.3131 H   0  0  0  0  0  0  0  0  0  0  0  0
    0.9054    3.6570    4.6560 H   0  0  0  0  0  0  0  0  0  0  0  0
    0.1289    2.0716    5.0169 H   0  0  0  0  0  0  0  0  0  0  0  0
    1.5400    0.4145    6.0666 H   0  0  0  0  0  0  0  0  0  0  0  0
    3.1432    1.0654    6.5601 H   0  0  0  0  0  0  0  0  0  0  0  0
    4.2232    0.0728    4.6316 H   0  0  0  0  0  0  0  0  0  0  0  0
    3.0552   -1.1970    5.0455 H   0  0  0  0  0  0  0  0  0  0  0  0
    1.3835   -0.2520    3.5351 H   0  0  0  0  0  0  0  0  0  0  0  0
    3.2681    2.1220    3.0578 H   0  0  0  0  0  0  0  0  0  0  0  0
    1.4812    2.0612    2.8931 H   0  0  0  0  0  0  0  0  0  0  0  0
    4.1295   -0.1384    2.1866 H   0  0  0  0  0  0  0  0  0  0  0  0
    3.1362   -1.5460    2.2905 H   0  0  0  0  0  0  0  0  0  0  0  0
    1.4786   -2.5897    1.4475 H   0  0  0  0  0  0  0  0  0  0  0  0
   -0.8117   -3.4113    1.2399 H   0  0  0  0  0  0  0  0  0  0  0  0
   -2.6148   -1.9148    0.4301 H   0  0  0  0  0  0  0  0  0  0  0  0
   -2.1025    0.4205   -0.1633 H   0  0  0  0  0  0  0  0  0  0  0  0
    4.9601    0.3895    0.3087 H   0  0  0  0  0  0  0  0  0  0  0  0
    5.8616    2.3222   -0.8851 H   0  0  0  0  0  0  0  0  0  0  0  0
    4.3448    4.0823   -1.7506 H   0  0  0  0  0  0  0  0  0  0  0  0
    1.9133    3.8886   -1.4069 H   0  0  0  0  0  0  0  0  0  0  0  0
    3.0059    2.7135    5.0874 H   0  0  0  0  0  0  0  0  0  0  0  0
  1 21  1  0
  2  3  1  0
  2 21  1  0
  3  4  1  0
  4  5  1  0
  4  6  1  0
  5 21  1  0
  6  7  1  0
  7 16  1  0
  7  8  1  0
  8 13  1  0
  8  9  2  0
  9 10  1  0
 10 11  2  0
 11 12  1  0
 12 13  2  0
 13 14  1  0
 14 15  1  0
 15 20  2  0
 15 16  1  0
 16 17  2  0
 17 18  1  0
 18 19  2  0
 19 20  1  0
  1 22  1  0
  1 23  1  0
  1 24  1  0
  2 25  1  0
  2 26  1  0
  3 27  1  0
  3 28  1  0
  4 29  1  1
  5 30  1  0
  5 31  1  0
  6 32  1  0
  6 33  1  0
  9 34  1  0
 10 35  1  0
 11 36  1  0
 12 37  1  0
 17 38  1  0
 18 39  1  0
 19 40  1  0
 20 41  1  0
 21 42  1  1
M  CHG  1  21   1
M  END
>  <_TriposChargeType>  (1) 
USER_CHARGES

$$$$
