REMARK  1 active torsions:
REMARK  status: ('A' for Active; 'I' for Inactive)
REMARK    1  A    between atoms: C10_13  and  C11_14 
ROOT
ATOM      1  C1  LG1 d5015      22.591   9.554  60.654  0.00  0.00     0.018 C 
ATOM      2  C2  LG1 d5015      22.191  10.678  59.771  0.00  0.00     0.193 C 
ATOM      3  C3  LG1 d5015      22.433  10.442  58.332  0.00  0.00     0.049 A 
ATOM      4  C4  LG1 d5015      22.205  11.463  57.407  0.00  0.00     0.037 A 
ATOM      5  C5  LG1 d5015      22.378  11.213  56.045  0.00  0.00     0.012 A 
ATOM      6  C6  LG1 d5015      22.767   9.947  55.606  0.00  0.00     0.022 A 
ATOM      7  C7  LG1 d5015      22.991   8.926  56.531  0.00  0.00     0.039 A 
ATOM      8  C8  LG1 d5015      22.841   9.176  57.895  0.00  0.00     0.083 A 
ATOM      9  O1  LG1 d5015      23.060   8.125  58.746  0.00  0.00    -0.346 OA
ATOM     10  C9  LG1 d5015      23.498   8.534  60.046  0.00  0.00     0.218 C 
ATOM     11 BR1  LG1 d5015      22.101  12.600  54.789  0.00  0.00    -0.051 Br
ATOM     12  O2  LG1 d5015      21.702  11.721  60.180  0.00  0.00    -0.287 OA
ATOM     13  C10 LG1 d5015      22.138   9.514  61.913  0.00  0.00     0.025 C 
ENDROOT
BRANCH  13  14
ATOM     14  C11 LG1 d5015      22.452   8.484  62.857  0.00  0.00    -0.029 A 
ATOM     15  C14 LG1 d5015      22.724   7.187  62.485  0.00  0.00     0.061 A 
ATOM     16  S1  LG1 d5015      23.065   6.190  63.834  0.00  0.00    -0.113 SA
ATOM     17  C13 LG1 d5015      22.848   7.493  64.922  0.00  0.00     0.050 A 
ATOM     18  C12 LG1 d5015      22.524   8.662  64.269  0.00  0.00     0.019 A 
ENDBRANCH  13  14
TORSDOF 1
