REMARK INTER + INTRA:          -7.270
REMARK INTER:                  -5.477
REMARK INTRA:                  -1.792
REMARK UNBOUND:                -1.792
REMARK  4 active torsions:
REMARK  status: ('A' for Active; 'I' for Inactive)
REMARK    1  A    between atoms: C4_4  and  N1_25 
REMARK    2  A    between atoms: C8_8  and  C16_16 
REMARK    3  A    between atoms: C9_9  and  C10_10 
REMARK    4  A    between atoms: C16_16  and  C17_17 
ROOT
ATOM      1  C7  <0> d  11       2.237   1.785 -18.964  0.00  0.00     0.271 A 
ATOM      2  C8  <0> d  11       1.835   0.691 -19.756  0.00  0.00     0.044 A 
ATOM      3  C9  <0> d  11       2.407  -0.434 -19.240  0.00  0.00     0.070 A 
ATOM      4  H1  <0> d  11       3.683  -0.662 -17.591  0.00  0.00     0.187 HD
ATOM      5  N1  <0> d  11       3.043   1.320 -17.990  0.00  0.00    -0.252 N 
ATOM      6  N2  <0> d  11       3.163  -0.066 -18.151  0.00  0.00    -0.294 N 
ATOM      7  O1  <0> d  11       1.911   2.948 -19.132  0.00  0.00    -0.266 OA
ENDROOT
BRANCH   5   8
ATOM      8  C4  <0> d  11       3.684   2.125 -16.946  0.00  0.00     0.115 C 
ATOM      9  C3  <0> d  11       3.736   1.324 -15.643  0.00  0.00     0.055 C 
ATOM     10  C2  <0> d  11       4.461   2.145 -14.574  0.00  0.00     0.236 C 
ATOM     11  N3  <0> d  11       5.834   2.432 -15.037  0.00  0.00    -0.075 N 
ATOM     12  C1  <0> d  11       6.591   3.127 -13.975  0.00  0.00     0.269 C 
ATOM     13  C6  <0> d  11       5.793   3.268 -16.257  0.00  0.00     0.236 C 
ATOM     14  H26 <0> d  11       6.304   1.546 -15.256  0.00  0.00     0.279 HD
ATOM     15  C5  <0> d  11       5.110   2.479 -17.376  0.00  0.00     0.055 C 
ENDBRANCH   5   8
BRANCH   3  16
ATOM     16  C10 <0> d  11       2.246  -1.807 -19.762  0.00  0.00    -0.007 A 
ATOM     17  C15 <0> d  11       1.057  -2.505 -19.543  0.00  0.00     0.014 A 
ATOM     18  C14 <0> d  11       0.913  -3.787 -20.032  0.00  0.00     0.001 A 
ATOM     19  C13 <0> d  11       1.944  -4.381 -20.738  0.00  0.00     0.000 A 
ATOM     20  C12 <0> d  11       3.125  -3.695 -20.960  0.00  0.00     0.001 A 
ATOM     21  C11 <0> d  11       3.280  -2.410 -20.480  0.00  0.00     0.014 A 
ENDBRANCH   3  16
BRANCH   2  22
ATOM     22  C16 <0> d  11       0.929   0.752 -20.959  0.00  0.00     0.085 C 
BRANCH  22  23
ATOM     23  C17 <0> d  11       1.705   0.366 -22.192  0.00  0.00    -0.054 A 
ATOM     24  C22 <0> d  11       2.851   1.059 -22.532  0.00  0.00     0.007 A 
ATOM     25  C21 <0> d  11       3.564   0.705 -23.663  0.00  0.00     0.001 A 
ATOM     26  C20 <0> d  11       3.129  -0.343 -24.453  0.00  0.00     0.000 A 
ATOM     27  C19 <0> d  11       1.985  -1.039 -24.110  0.00  0.00     0.001 A 
ATOM     28  C18 <0> d  11       1.270  -0.681 -22.983  0.00  0.00     0.007 A 
ENDBRANCH  22  23
ENDBRANCH   2  22
TORSDOF 4
ENDMDL
