REMARK INTER + INTRA:          -5.218
REMARK INTER:                  -5.110
REMARK INTRA:                  -0.108
REMARK UNBOUND:                -0.112
REMARK  3 active torsions:
REMARK  status: ('A' for Active; 'I' for Inactive)
REMARK    1  A    between atoms: C3_3  and  S1_15 
REMARK    2  A    between atoms: C6_6  and  C7_7 
REMARK    3  A    between atoms: S1_15  and  N1_10 
ROOT
ATOM      1  C1  <0> d  11       1.896   2.547 -19.208  0.00  0.00     0.020 A 
ATOM      2  C2  <0> d  11       1.518   1.272 -19.574  0.00  0.00     0.026 A 
ATOM      3  C3  <0> d  11       2.032   0.176 -18.905  0.00  0.00     0.079 A 
ATOM      4  C4  <0> d  11       2.931   0.350 -17.867  0.00  0.00     0.026 A 
ATOM      5  C5  <0> d  11       3.322   1.619 -17.494  0.00  0.00     0.020 A 
ATOM      6  C6  <0> d  11       2.808   2.729 -18.166  0.00  0.00     0.040 A 
ENDROOT
BRANCH   3   7
ATOM      7  S1  <0> d  11       1.539  -1.449 -19.375  0.00  0.00     0.256 S 
ATOM      8  O2  <0> d  11       1.659  -1.517 -20.789  0.00  0.00    -0.201 OA
ATOM      9  O3  <0> d  11       2.219  -2.347 -18.508  0.00  0.00    -0.201 OA
BRANCH   7  10
ATOM     10  N1  <0> d  11      -0.074  -1.589 -19.030  0.00  0.00    -0.324 N 
ATOM     11  H5  <0> d  11      -0.589  -2.319 -19.409  0.00  0.00     0.169 HD
ATOM     12  H6  <0> d  11      -0.504  -0.943 -18.448  0.00  0.00     0.169 HD
ENDBRANCH   7  10
ENDBRANCH   3   7
BRANCH   6  13
ATOM     13  C7  <0> d  11       3.222   4.092 -17.771  0.00  0.00     0.209 C 
ATOM     14  O1  <0> d  11       4.391   4.328 -17.543  0.00  0.00    -0.644 OA
ATOM     15  O4  <0> d  11       2.303   5.072 -17.670  0.00  0.00    -0.644 OA
ENDBRANCH   6  13
TORSDOF 3
ENDMDL
