REMARK INTER + INTRA:          -7.482
REMARK INTER:                  -5.755
REMARK INTRA:                  -1.727
REMARK UNBOUND:                -1.751
REMARK  4 active torsions:
REMARK  status: ('A' for Active; 'I' for Inactive)
REMARK    1  A    between atoms: C4_4  and  N1_25 
REMARK    2  A    between atoms: C8_8  and  C16_16 
REMARK    3  A    between atoms: C9_9  and  C10_10 
REMARK    4  A    between atoms: C16_16  and  C17_17 
ROOT
ATOM      1  C7  <0> d  11       3.016   0.364 -16.851  0.00  0.00     0.271 A 
ATOM      2  C8  <0> d  11       2.319  -0.086 -17.990  0.00  0.00     0.044 A 
ATOM      3  C9  <0> d  11       2.766   0.624 -19.065  0.00  0.00     0.070 A 
ATOM      4  H1  <0> d  11       4.205   2.147 -19.170  0.00  0.00     0.187 HD
ATOM      5  N1  <0> d  11       3.865   1.335 -17.240  0.00  0.00    -0.252 N 
ATOM      6  N2  <0> d  11       3.718   1.513 -18.621  0.00  0.00    -0.294 N 
ATOM      7  O1  <0> d  11       2.874  -0.053 -15.714  0.00  0.00    -0.266 OA
ENDROOT
BRANCH   5   8
ATOM      8  C4  <0> d  11       4.781   2.077 -16.369  0.00  0.00     0.115 C 
ATOM      9  C3  <0> d  11       5.862   2.750 -17.219  0.00  0.00     0.055 C 
ATOM     10  C2  <0> d  11       6.779   3.573 -16.311  0.00  0.00     0.236 C 
ATOM     11  N3  <0> d  11       5.973   4.604 -15.623  0.00  0.00    -0.075 N 
ATOM     12  C1  <0> d  11       6.854   5.484 -14.828  0.00  0.00     0.269 C 
ATOM     13  C6  <0> d  11       4.973   3.963 -14.743  0.00  0.00     0.236 C 
ATOM     14  H26 <0> d  11       5.483   5.169 -16.327  0.00  0.00     0.279 HD
ATOM     15  C5  <0> d  11       4.002   3.152 -15.604  0.00  0.00     0.055 C 
ENDBRANCH   5   8
BRANCH   3  16
ATOM     16  C10 <0> d  11       2.305   0.469 -20.460  0.00  0.00    -0.007 A 
ATOM     17  C15 <0> d  11       3.050  -0.293 -21.363  0.00  0.00     0.014 A 
ATOM     18  C14 <0> d  11       2.614  -0.434 -22.664  0.00  0.00     0.001 A 
ATOM     19  C13 <0> d  11       1.443   0.178 -23.076  0.00  0.00     0.000 A 
ATOM     20  C12 <0> d  11       0.700   0.934 -22.186  0.00  0.00     0.001 A 
ATOM     21  C11 <0> d  11       1.122   1.078 -20.880  0.00  0.00     0.014 A 
ENDBRANCH   3  16
BRANCH   2  22
ATOM     22  C16 <0> d  11       1.268  -1.166 -18.018  0.00  0.00     0.085 C 
BRANCH  22  23
ATOM     23  C17 <0> d  11       1.774  -2.339 -18.817  0.00  0.00    -0.054 A 
ATOM     24  C22 <0> d  11       1.008  -2.860 -19.843  0.00  0.00     0.007 A 
ATOM     25  C21 <0> d  11       1.474  -3.935 -20.576  0.00  0.00     0.001 A 
ATOM     26  C20 <0> d  11       2.705  -4.489 -20.285  0.00  0.00     0.000 A 
ATOM     27  C19 <0> d  11       3.474  -3.966 -19.261  0.00  0.00     0.001 A 
ATOM     28  C18 <0> d  11       3.007  -2.893 -18.525  0.00  0.00     0.007 A 
ENDBRANCH  22  23
ENDBRANCH   2  22
TORSDOF 4
ENDMDL
