MODEL 1
REMARK VINA RESULT:    -4.968      0.000      0.000
REMARK INTER + INTRA:          -5.990
REMARK INTER:                  -5.480
REMARK INTRA:                  -0.510
REMARK UNBOUND:                -0.441
REMARK  2 active torsions:
REMARK  status: ('A' for Active; 'I' for Inactive)
REMARK    1  A    between atoms: C4_4  and  C6_6 
REMARK    2  A    between atoms: C6_6  and  N1_20 
ROOT
ATOM      1  C7  <0> d  11       1.844   0.844 -22.006  0.00  0.00     0.052 A 
ATOM      2  C8  <0> d  11       1.502   1.914 -22.816  0.00  0.00     0.031 A 
ATOM      3  C9  <0> d  11       1.780   1.874 -24.171  0.00  0.00     0.002 A 
ATOM      4  C10 <0> d  11       2.398   0.769 -24.726  0.00  0.00     0.002 A 
ATOM      5  C11 <0> d  11       2.746  -0.307 -23.925  0.00  0.00     0.021 A 
ATOM      6  C12 <0> d  11       2.471  -0.270 -22.572  0.00  0.00     0.032 A 
ATOM      7  C13 <0> d  11       1.691  -1.514 -20.245  0.00  0.00     0.032 A 
ATOM      8  C14 <0> d  11       1.150  -0.263 -19.938  0.00  0.00     0.052 A 
ATOM      9  C15 <0> d  11       0.199  -0.163 -18.934  0.00  0.00     0.031 A 
ATOM     10  C16 <0> d  11      -0.206  -1.294 -18.250  0.00  0.00     0.002 A 
ATOM     11  C17 <0> d  11       0.332  -2.530 -18.558  0.00  0.00     0.002 A 
ATOM     12  C18 <0> d  11       1.284  -2.642 -19.558  0.00  0.00     0.021 A 
ATOM     13  N1  <0> d  11       1.564   0.877 -20.636  0.00  0.00    -0.344 N 
ATOM     14  S1  <0> d  11       2.902  -1.625 -21.526  0.00  0.00    -0.086 SA
ENDROOT
BRANCH  13  15
ATOM     15  C6  <0> d  11       1.705   2.142 -19.911  0.00  0.00     0.136 C 
BRANCH  15  16
ATOM     16  C4  <0> d  11       2.816   2.011 -18.867  0.00  0.00     0.031 C 
ATOM     17  C3  <0> d  11       4.191   1.802 -19.554  0.00  0.00     0.035 C 
ATOM     18  C2  <0> d  11       5.163   2.361 -18.484  0.00  0.00     0.234 C 
ATOM     19  N2  <0> d  11       4.455   3.528 -17.921  0.00  0.00    -0.074 N 
ATOM     20  C1  <0> d  11       4.776   3.672 -16.477  0.00  0.00     0.269 C 
ATOM     21  C5  <0> d  11       3.007   3.338 -18.103  0.00  0.00     0.240 C 
ATOM     22  H21 <0> d  11       4.751   4.378 -18.416  0.00  0.00     0.279 HD
ENDBRANCH  15  16
ENDBRANCH  13  15
TORSDOF 2
ENDMDL
MODEL 2
REMARK VINA RESULT:    -4.719      1.637      5.447
REMARK INTER + INTRA:          -5.713
REMARK INTER:                  -5.075
REMARK INTRA:                  -0.638
REMARK UNBOUND:                -0.441
REMARK  2 active torsions:
REMARK  status: ('A' for Active; 'I' for Inactive)
REMARK    1  A    between atoms: C4_4  and  C6_6 
REMARK    2  A    between atoms: C6_6  and  N1_20 
ROOT
ATOM      1  C7  <0> d  11       2.202  -1.053 -19.605  0.00  0.00     0.052 A 
ATOM      2  C8  <0> d  11       1.097  -1.888 -19.640  0.00  0.00     0.031 A 
ATOM      3  C9  <0> d  11       1.236  -3.232 -19.344  0.00  0.00     0.002 A 
ATOM      4  C10 <0> d  11       2.472  -3.752 -19.012  0.00  0.00     0.002 A 
ATOM      5  C11 <0> d  11       3.585  -2.926 -18.975  0.00  0.00     0.021 A 
ATOM      6  C12 <0> d  11       3.451  -1.584 -19.271  0.00  0.00     0.032 A 
ATOM      7  C13 <0> d  11       4.116   1.050 -18.833  0.00  0.00     0.032 A 
ATOM      8  C14 <0> d  11       2.793   1.288 -19.215  0.00  0.00     0.052 A 
ATOM      9  C15 <0> d  11       2.208   2.506 -18.908  0.00  0.00     0.031 A 
ATOM     10  C16 <0> d  11       2.931   3.470 -18.229  0.00  0.00     0.002 A 
ATOM     11  C17 <0> d  11       4.240   3.229 -17.853  0.00  0.00     0.002 A 
ATOM     12  C18 <0> d  11       4.835   2.015 -18.155  0.00  0.00     0.021 A 
ATOM     13  N1  <0> d  11       2.068   0.308 -19.901  0.00  0.00    -0.344 N 
ATOM     14  S1  <0> d  11       4.849  -0.507 -19.233  0.00  0.00    -0.086 SA
ENDROOT
BRANCH  13  15
ATOM     15  C6  <0> d  11       1.140   0.719 -20.958  0.00  0.00     0.136 C 
BRANCH  15  16
ATOM     16  C4  <0> d  11       1.852   0.668 -22.310  0.00  0.00     0.031 C 
ATOM     17  C3  <0> d  11       1.376  -0.558 -23.134  0.00  0.00     0.035 C 
ATOM     18  C2  <0> d  11       1.634  -0.078 -24.584  0.00  0.00     0.234 C 
ATOM     19  N2  <0> d  11       1.280   1.355 -24.565  0.00  0.00    -0.074 N 
ATOM     20  C1  <0> d  11       2.159   2.112 -25.494  0.00  0.00     0.269 C 
ATOM     21  C5  <0> d  11       1.433   1.863 -23.193  0.00  0.00     0.240 C 
ATOM     22  H21 <0> d  11       0.303   1.468 -24.862  0.00  0.00     0.279 HD
ENDBRANCH  15  16
ENDBRANCH  13  15
TORSDOF 2
ENDMDL
MODEL 3
REMARK VINA RESULT:    -4.708      1.408      5.464
REMARK INTER + INTRA:          -5.699
REMARK INTER:                  -5.239
REMARK INTRA:                  -0.461
REMARK UNBOUND:                -0.441
REMARK  2 active torsions:
REMARK  status: ('A' for Active; 'I' for Inactive)
REMARK    1  A    between atoms: C4_4  and  C6_6 
REMARK    2  A    between atoms: C6_6  and  N1_20 
ROOT
ATOM      1  C7  <0> d  11       3.046   2.029 -19.464  0.00  0.00     0.052 A 
ATOM      2  C8  <0> d  11       2.598   2.895 -18.480  0.00  0.00     0.031 A 
ATOM      3  C9  <0> d  11       3.505   3.527 -17.648  0.00  0.00     0.002 A 
ATOM      4  C10 <0> d  11       4.861   3.301 -17.790  0.00  0.00     0.002 A 
ATOM      5  C11 <0> d  11       5.321   2.436 -18.771  0.00  0.00     0.021 A 
ATOM      6  C12 <0> d  11       4.419   1.803 -19.603  0.00  0.00     0.032 A 
ATOM      7  C13 <0> d  11       3.703   0.839 -22.078  0.00  0.00     0.032 A 
ATOM      8  C14 <0> d  11       2.410   1.173 -21.665  0.00  0.00     0.052 A 
ATOM      9  C15 <0> d  11       1.404   1.288 -22.611  0.00  0.00     0.031 A 
ATOM     10  C16 <0> d  11       1.684   1.073 -23.949  0.00  0.00     0.002 A 
ATOM     11  C17 <0> d  11       2.965   0.743 -24.353  0.00  0.00     0.002 A 
ATOM     12  C18 <0> d  11       3.978   0.625 -23.415  0.00  0.00     0.021 A 
ATOM     13  N1  <0> d  11       2.135   1.390 -20.310  0.00  0.00    -0.344 N 
ATOM     14  S1  <0> d  11       4.974   0.695 -20.861  0.00  0.00    -0.086 SA
ENDROOT
BRANCH  13  15
ATOM     15  C6  <0> d  11       0.854   0.935 -19.764  0.00  0.00     0.136 C 
BRANCH  15  16
ATOM     16  C4  <0> d  11       1.042  -0.423 -19.086  0.00  0.00     0.031 C 
ATOM     17  C3  <0> d  11      -0.256  -0.854 -18.353  0.00  0.00     0.035 C 
ATOM     18  C2  <0> d  11      -0.118  -2.397 -18.353  0.00  0.00     0.234 C 
ATOM     19  N2  <0> d  11       0.481  -2.711 -19.665  0.00  0.00    -0.074 N 
ATOM     20  C1  <0> d  11       1.385  -3.885 -19.547  0.00  0.00     0.269 C 
ATOM     21  C5  <0> d  11       1.232  -1.537 -20.137  0.00  0.00     0.240 C 
ATOM     22  H21 <0> d  11      -0.265  -2.928 -20.336  0.00  0.00     0.279 HD
ENDBRANCH  15  16
ENDBRANCH  13  15
TORSDOF 2
ENDMDL
MODEL 4
REMARK VINA RESULT:    -4.489      3.367      6.341
REMARK INTER + INTRA:          -5.456
REMARK INTER:                  -4.827
REMARK INTRA:                  -0.629
REMARK UNBOUND:                -0.441
REMARK  2 active torsions:
REMARK  status: ('A' for Active; 'I' for Inactive)
REMARK    1  A    between atoms: C4_4  and  C6_6 
REMARK    2  A    between atoms: C6_6  and  N1_20 
ROOT
ATOM      1  C7  <0> d  11       3.662   1.052 -16.152  0.00  0.00     0.052 A 
ATOM      2  C8  <0> d  11       3.789   0.804 -14.794  0.00  0.00     0.031 A 
ATOM      3  C9  <0> d  11       4.357   1.756 -13.967  0.00  0.00     0.002 A 
ATOM      4  C10 <0> d  11       4.800   2.958 -14.485  0.00  0.00     0.002 A 
ATOM      5  C11 <0> d  11       4.679   3.217 -15.841  0.00  0.00     0.021 A 
ATOM      6  C12 <0> d  11       4.113   2.269 -16.670  0.00  0.00     0.032 A 
ATOM      7  C13 <0> d  11       2.533   1.594 -18.819  0.00  0.00     0.032 A 
ATOM      8  C14 <0> d  11       2.256   0.452 -18.061  0.00  0.00     0.052 A 
ATOM      9  C15 <0> d  11       1.151  -0.322 -18.379  0.00  0.00     0.031 A 
ATOM     10  C16 <0> d  11       0.335   0.040 -19.436  0.00  0.00     0.002 A 
ATOM     11  C17 <0> d  11       0.613   1.170 -20.182  0.00  0.00     0.002 A 
ATOM     12  C18 <0> d  11       1.715   1.950 -19.873  0.00  0.00     0.021 A 
ATOM     13  N1  <0> d  11       3.086   0.094 -16.993  0.00  0.00    -0.344 N 
ATOM     14  S1  <0> d  11       3.945   2.569 -18.402  0.00  0.00    -0.086 SA
ENDROOT
BRANCH  13  15
ATOM     15  C6  <0> d  11       3.358  -1.325 -16.749  0.00  0.00     0.136 C 
BRANCH  15  16
ATOM     16  C4  <0> d  11       4.398  -1.825 -17.753  0.00  0.00     0.031 C 
ATOM     17  C3  <0> d  11       5.731  -2.167 -17.036  0.00  0.00     0.035 C 
ATOM     18  C2  <0> d  11       6.338  -3.223 -17.994  0.00  0.00     0.234 C 
ATOM     19  N2  <0> d  11       5.178  -4.013 -18.451  0.00  0.00    -0.074 N 
ATOM     20  C1  <0> d  11       5.383  -4.457 -19.855  0.00  0.00     0.269 C 
ATOM     21  C5  <0> d  11       3.968  -3.181 -18.352  0.00  0.00     0.240 C 
ATOM     22  H21 <0> d  11       5.072  -4.839 -17.850  0.00  0.00     0.279 HD
ENDBRANCH  15  16
ENDBRANCH  13  15
TORSDOF 2
ENDMDL
MODEL 5
REMARK VINA RESULT:    -4.306      1.890      4.931
REMARK INTER + INTRA:          -5.251
REMARK INTER:                  -4.809
REMARK INTRA:                  -0.441
REMARK UNBOUND:                -0.441
REMARK  2 active torsions:
REMARK  status: ('A' for Active; 'I' for Inactive)
REMARK    1  A    between atoms: C4_4  and  C6_6 
REMARK    2  A    between atoms: C6_6  and  N1_20 
ROOT
ATOM      1  C7  <0> d  11       3.966   0.367 -20.219  0.00  0.00     0.052 A 
ATOM      2  C8  <0> d  11       5.317   0.226 -20.492  0.00  0.00     0.031 A 
ATOM      3  C9  <0> d  11       6.222   1.154 -20.007  0.00  0.00     0.002 A 
ATOM      4  C10 <0> d  11       5.789   2.225 -19.250  0.00  0.00     0.002 A 
ATOM      5  C11 <0> d  11       4.439   2.377 -18.971  0.00  0.00     0.021 A 
ATOM      6  C12 <0> d  11       3.533   1.454 -19.454  0.00  0.00     0.032 A 
ATOM      7  C13 <0> d  11       1.252  -0.056 -19.153  0.00  0.00     0.032 A 
ATOM      8  C14 <0> d  11       1.939  -0.975 -19.951  0.00  0.00     0.052 A 
ATOM      9  C15 <0> d  11       1.512  -2.293 -19.989  0.00  0.00     0.031 A 
ATOM     10  C16 <0> d  11       0.417  -2.686 -19.241  0.00  0.00     0.002 A 
ATOM     11  C17 <0> d  11      -0.259  -1.773 -18.453  0.00  0.00     0.002 A 
ATOM     12  C18 <0> d  11       0.159  -0.454 -18.408  0.00  0.00     0.021 A 
ATOM     13  N1  <0> d  11       3.047  -0.568 -20.704  0.00  0.00    -0.344 N 
ATOM     14  S1  <0> d  11       1.808   1.621 -19.116  0.00  0.00    -0.086 SA
ENDROOT
BRANCH  13  15
ATOM     15  C6  <0> d  11       3.249  -1.142 -22.036  0.00  0.00     0.136 C 
BRANCH  15  16
ATOM     16  C4  <0> d  11       3.136  -0.038 -23.089  0.00  0.00     0.031 C 
ATOM     17  C3  <0> d  11       3.187  -0.638 -24.519  0.00  0.00     0.035 C 
ATOM     18  C2  <0> d  11       2.412   0.429 -25.333  0.00  0.00     0.234 C 
ATOM     19  N2  <0> d  11       1.326   0.859 -24.431  0.00  0.00    -0.074 N 
ATOM     20  C1  <0> d  11       1.030   2.301 -24.640  0.00  0.00     0.269 C 
ATOM     21  C5  <0> d  11       1.742   0.623 -23.040  0.00  0.00     0.240 C 
ATOM     22  H21 <0> d  11       0.481   0.312 -24.630  0.00  0.00     0.279 HD
ENDBRANCH  15  16
ENDBRANCH  13  15
TORSDOF 2
ENDMDL
