REMARK INTER + INTRA:          -6.390
REMARK INTER:                  -5.901
REMARK INTRA:                  -0.489
REMARK UNBOUND:                -0.489
REMARK  3 active torsions:
REMARK  status: ('A' for Active; 'I' for Inactive)
REMARK    1  A    between atoms: C4_4  and  C7_7 
REMARK    2  A    between atoms: C14_14  and  C16_16 
REMARK    3  A    between atoms: C16_16  and  C17_17 
ROOT
ATOM      1  C7  <0> d  11       1.992  -2.725 -21.517  0.00  0.00     0.090 A 
ATOM      2  C8  <0> d  11       2.670  -3.740 -20.918  0.00  0.00     0.093 A 
ATOM      3  C9  <0> d  11       3.055  -3.616 -19.562  0.00  0.00     0.187 A 
ATOM      4  C10 <0> d  11       2.683  -2.371 -18.863  0.00  0.00     0.048 A 
ATOM      5  C11 <0> d  11       3.017  -2.162 -17.526  0.00  0.00     0.018 A 
ATOM      6  C12 <0> d  11       2.651  -0.986 -16.909  0.00  0.00     0.002 A 
ATOM      7  C13 <0> d  11       1.956  -0.013 -17.612  0.00  0.00     0.010 A 
ATOM      8  C14 <0> d  11       1.619  -0.208 -18.935  0.00  0.00    -0.013 A 
ATOM      9  C15 <0> d  11       1.978  -1.388 -19.576  0.00  0.00     0.097 A 
ATOM     10  O1  <0> d  11       3.668  -4.504 -18.993  0.00  0.00    -0.287 OA
ATOM     11  O2  <0> d  11       1.659  -1.598 -20.870  0.00  0.00    -0.308 OA
ENDROOT
BRANCH   1  12
ATOM     12  C4  <0> d  11       1.602  -2.870 -22.934  0.00  0.00    -0.002 A 
ATOM     13  C3  <0> d  11       1.513  -4.140 -23.510  0.00  0.00     0.014 A 
ATOM     14  C2  <0> d  11       1.148  -4.268 -24.834  0.00  0.00     0.001 A 
ATOM     15  C1  <0> d  11       0.872  -3.143 -25.592  0.00  0.00     0.000 A 
ATOM     16  C6  <0> d  11       0.959  -1.883 -25.028  0.00  0.00     0.001 A 
ATOM     17  C5  <0> d  11       1.317  -1.740 -23.703  0.00  0.00     0.014 A 
ENDBRANCH   1  12
BRANCH   8  18
ATOM     18  C16 <0> d  11       0.861   0.857 -19.685  0.00  0.00     0.154 C 
BRANCH  18  19
ATOM     19  C17 <0> d  11       1.833   1.738 -20.426  0.00  0.00     0.177 C 
ATOM     20  O3  <0> d  11       1.611   2.056 -21.570  0.00  0.00    -0.648 OA
ATOM     21  O4  <0> d  11       2.948   2.169 -19.813  0.00  0.00    -0.648 OA
ENDBRANCH  18  19
ENDBRANCH   8  18
TORSDOF 3
ENDMDL
