REMARK INTER + INTRA:          -5.704
REMARK INTER:                  -5.249
REMARK INTRA:                  -0.455
REMARK UNBOUND:                 0.180
REMARK  2 active torsions:
REMARK  status: ('A' for Active; 'I' for Inactive)
REMARK    1  A    between atoms: C4_4  and  C6_6 
REMARK    2  A    between atoms: C6_6  and  N1_20 
ROOT
ATOM      1  C7  <0> d  11       3.032   2.035 -19.454  0.00  0.00     0.052 A 
ATOM      2  C8  <0> d  11       2.599   2.901 -18.463  0.00  0.00     0.031 A 
ATOM      3  C9  <0> d  11       3.517   3.524 -17.637  0.00  0.00     0.002 A 
ATOM      4  C10 <0> d  11       4.870   3.291 -17.794  0.00  0.00     0.002 A 
ATOM      5  C11 <0> d  11       5.316   2.427 -18.782  0.00  0.00     0.021 A 
ATOM      6  C12 <0> d  11       4.402   1.802 -19.607  0.00  0.00     0.032 A 
ATOM      7  C13 <0> d  11       3.656   0.850 -22.079  0.00  0.00     0.032 A 
ATOM      8  C14 <0> d  11       2.369   1.190 -21.652  0.00  0.00     0.052 A 
ATOM      9  C15 <0> d  11       1.354   1.314 -22.587  0.00  0.00     0.031 A 
ATOM     10  C16 <0> d  11       1.620   1.102 -23.928  0.00  0.00     0.002 A 
ATOM     11  C17 <0> d  11       2.895   0.766 -24.346  0.00  0.00     0.002 A 
ATOM     12  C18 <0> d  11       3.916   0.640 -23.419  0.00  0.00     0.021 A 
ATOM     13  N1  <0> d  11       2.109   1.404 -20.293  0.00  0.00    -0.344 N 
ATOM     14  S1  <0> d  11       4.938   0.695 -20.874  0.00  0.00    -0.086 SA
ENDROOT
BRANCH  13  15
ATOM     15  C6  <0> d  11       0.830   0.954 -19.736  0.00  0.00     0.136 C 
BRANCH  15  16
ATOM     16  C4  <0> d  11       1.022  -0.401 -19.053  0.00  0.00     0.031 C 
ATOM     17  C3  <0> d  11      -0.278  -0.839 -18.328  0.00  0.00     0.035 C 
ATOM     18  C2  <0> d  11      -0.131  -2.381 -18.324  0.00  0.00     0.234 C 
ATOM     19  N2  <0> d  11       0.481  -2.693 -19.632  0.00  0.00    -0.074 N 
ATOM     20  C1  <0> d  11       1.391  -3.862 -19.504  0.00  0.00     0.269 C 
ATOM     21  C5  <0> d  11       1.228  -1.515 -20.100  0.00  0.00     0.240 C 
ATOM     22  H21 <0> d  11      -0.259  -2.918 -20.306  0.00  0.00     0.279 HD
ENDBRANCH  15  16
ENDBRANCH  13  15
TORSDOF 2
ENDMDL
