REMARK INTER + INTRA:          -6.906
REMARK INTER:                  -6.534
REMARK INTRA:                  -0.371
REMARK UNBOUND:                -0.625
REMARK  3 active torsions:
REMARK  status: ('A' for Active; 'I' for Inactive)
REMARK    1  A    between atoms: C4_4  and  C7_7 
REMARK    2  A    between atoms: C14_14  and  C16_16 
REMARK    3  A    between atoms: C16_16  and  C17_17 
ROOT
ATOM      1  C7  <0> d  11       1.972   0.171 -20.853  0.00  0.00     0.090 A 
ATOM      2  C8  <0> d  11       1.509  -1.042 -20.445  0.00  0.00     0.093 A 
ATOM      3  C9  <0> d  11       1.663  -1.427 -19.092  0.00  0.00     0.187 A 
ATOM      4  C10 <0> d  11       2.321  -0.467 -18.184  0.00  0.00     0.048 A 
ATOM      5  C11 <0> d  11       2.512  -0.759 -16.835  0.00  0.00     0.018 A 
ATOM      6  C12 <0> d  11       3.132   0.164 -16.020  0.00  0.00     0.002 A 
ATOM      7  C13 <0> d  11       3.563   1.376 -16.538  0.00  0.00     0.010 A 
ATOM      8  C14 <0> d  11       3.378   1.677 -17.871  0.00  0.00    -0.013 A 
ATOM      9  C15 <0> d  11       2.756   0.760 -18.710  0.00  0.00     0.097 A 
ATOM     10  O1  <0> d  11       1.266  -2.508 -18.691  0.00  0.00    -0.287 OA
ATOM     11  O2  <0> d  11       2.568   1.034 -20.017  0.00  0.00    -0.308 OA
ENDROOT
BRANCH   1  12
ATOM     12  C4  <0> d  11       1.807   0.553 -22.269  0.00  0.00    -0.002 A 
ATOM     13  C3  <0> d  11       1.870  -0.419 -23.270  0.00  0.00     0.014 A 
ATOM     14  C2  <0> d  11       1.714  -0.054 -24.591  0.00  0.00     0.001 A 
ATOM     15  C1  <0> d  11       1.495   1.270 -24.927  0.00  0.00     0.000 A 
ATOM     16  C6  <0> d  11       1.432   2.239 -23.940  0.00  0.00     0.001 A 
ATOM     17  C5  <0> d  11       1.580   1.887 -22.614  0.00  0.00     0.014 A 
ENDBRANCH   1  12
BRANCH   8  18
ATOM     18  C16 <0> d  11       3.851   3.000 -18.418  0.00  0.00     0.154 C 
BRANCH  18  19
ATOM     19  C17 <0> d  11       3.484   4.101 -17.457  0.00  0.00     0.177 C 
ATOM     20  O3  <0> d  11       4.260   4.432 -16.593  0.00  0.00    -0.648 OA
ATOM     21  O4  <0> d  11       2.296   4.715 -17.562  0.00  0.00    -0.648 OA
ENDBRANCH  18  19
ENDBRANCH   8  18
TORSDOF 3
ENDMDL
