REMARK INTER + INTRA:          -5.243
REMARK INTER:                  -5.136
REMARK INTRA:                  -0.108
REMARK UNBOUND:                -0.102
REMARK  3 active torsions:
REMARK  status: ('A' for Active; 'I' for Inactive)
REMARK    1  A    between atoms: C3_3  and  S1_15 
REMARK    2  A    between atoms: C6_6  and  C7_7 
REMARK    3  A    between atoms: S1_15  and  N1_10 
ROOT
ATOM      1  C1  <0> d  11       3.284   1.602 -17.483  0.00  0.00     0.020 A 
ATOM      2  C2  <0> d  11       2.879   0.333 -17.842  0.00  0.00     0.026 A 
ATOM      3  C3  <0> d  11       2.007   0.156 -18.901  0.00  0.00     0.079 A 
ATOM      4  C4  <0> d  11       1.531   1.249 -19.604  0.00  0.00     0.026 A 
ATOM      5  C5  <0> d  11       1.923   2.523 -19.252  0.00  0.00     0.020 A 
ATOM      6  C6  <0> d  11       2.803   2.709 -18.184  0.00  0.00     0.040 A 
ENDROOT
BRANCH   3   7
ATOM      7  S1  <0> d  11       1.500  -1.469 -19.357  0.00  0.00     0.256 S 
ATOM      8  O2  <0> d  11       1.614  -1.547 -20.771  0.00  0.00    -0.201 OA
ATOM      9  O3  <0> d  11       2.179  -2.366 -18.488  0.00  0.00    -0.201 OA
BRANCH   7  10
ATOM     10  N1  <0> d  11      -0.112  -1.596 -19.004  0.00  0.00    -0.324 N 
ATOM     11  H5  <0> d  11      -0.745  -0.975 -19.398  0.00  0.00     0.169 HD
ATOM     12  H6  <0> d  11      -0.424  -2.291 -18.404  0.00  0.00     0.169 HD
ENDBRANCH   7  10
ENDBRANCH   3   7
BRANCH   6  13
ATOM     13  C7  <0> d  11       3.227   4.072 -17.802  0.00  0.00     0.209 C 
ATOM     14  O1  <0> d  11       4.397   4.301 -17.571  0.00  0.00    -0.644 OA
ATOM     15  O4  <0> d  11       2.317   5.060 -17.713  0.00  0.00    -0.644 OA
ENDBRANCH   6  13
TORSDOF 3
ENDMDL
