REMARK INTER + INTRA:          -7.392
REMARK INTER:                  -6.933
REMARK INTRA:                  -0.459
REMARK UNBOUND:                -0.489
REMARK  3 active torsions:
REMARK  status: ('A' for Active; 'I' for Inactive)
REMARK    1  A    between atoms: C4_4  and  C7_7 
REMARK    2  A    between atoms: C14_14  and  C16_16 
REMARK    3  A    between atoms: C16_16  and  C17_17 
ROOT
ATOM      1  C7  <0> d  11       2.403   0.130 -18.591  0.00  0.00     0.090 A 
ATOM      2  C8  <0> d  11       1.988   1.347 -19.035  0.00  0.00     0.093 A 
ATOM      3  C9  <0> d  11       1.594   1.499 -20.385  0.00  0.00     0.187 A 
ATOM      4  C10 <0> d  11       1.649   0.301 -21.246  0.00  0.00     0.048 A 
ATOM      5  C11 <0> d  11       1.276   0.355 -22.588  0.00  0.00     0.018 A 
ATOM      6  C12 <0> d  11       1.342  -0.785 -23.359  0.00  0.00     0.002 A 
ATOM      7  C13 <0> d  11       1.777  -1.980 -22.805  0.00  0.00     0.010 A 
ATOM      8  C14 <0> d  11       2.147  -2.046 -21.479  0.00  0.00    -0.013 A 
ATOM      9  C15 <0> d  11       2.088  -0.908 -20.684  0.00  0.00     0.097 A 
ATOM     10  O1  <0> d  11       1.221   2.576 -20.819  0.00  0.00    -0.287 OA
ATOM     11  O2  <0> d  11       2.448  -0.951 -19.384  0.00  0.00    -0.308 OA
ENDROOT
BRANCH   1  12
ATOM     12  C4  <0> d  11       2.815  -0.008 -17.180  0.00  0.00    -0.002 A 
ATOM     13  C3  <0> d  11       3.475   1.041 -16.536  0.00  0.00     0.014 A 
ATOM     14  C2  <0> d  11       3.857   0.905 -15.217  0.00  0.00     0.001 A 
ATOM     15  C1  <0> d  11       3.588  -0.268 -14.532  0.00  0.00     0.000 A 
ATOM     16  C6  <0> d  11       2.935  -1.310 -15.164  0.00  0.00     0.001 A 
ATOM     17  C5  <0> d  11       2.542  -1.186 -16.481  0.00  0.00     0.014 A 
ENDBRANCH   1  12
BRANCH   8  18
ATOM     18  C16 <0> d  11       2.616  -3.353 -20.891  0.00  0.00     0.154 C 
BRANCH  18  19
ATOM     19  C17 <0> d  11       1.478  -4.010 -20.153  0.00  0.00     0.177 C 
ATOM     20  O3  <0> d  11       0.363  -3.986 -20.618  0.00  0.00    -0.648 OA
ATOM     21  O4  <0> d  11       1.704  -4.621 -18.979  0.00  0.00    -0.648 OA
ENDBRANCH  18  19
ENDBRANCH   8  18
TORSDOF 3
ENDMDL
