REMARK INTER + INTRA:          -4.671
REMARK INTER:                  -4.568
REMARK INTRA:                  -0.102
REMARK UNBOUND:                -0.102
REMARK  3 active torsions:
REMARK  status: ('A' for Active; 'I' for Inactive)
REMARK    1  A    between atoms: C3_3  and  S1_15 
REMARK    2  A    between atoms: C6_6  and  C7_7 
REMARK    3  A    between atoms: S1_15  and  N1_10 
ROOT
ATOM      1  C1  <0> d  11       0.672   0.902 -19.673  0.00  0.00     0.020 A 
ATOM      2  C2  <0> d  11       1.001   1.489 -20.878  0.00  0.00     0.026 A 
ATOM      3  C3  <0> d  11       1.642   0.752 -21.857  0.00  0.00     0.079 A 
ATOM      4  C4  <0> d  11       1.963  -0.575 -21.635  0.00  0.00     0.026 A 
ATOM      5  C5  <0> d  11       1.646  -1.174 -20.433  0.00  0.00     0.020 A 
ATOM      6  C6  <0> d  11       0.999  -0.435 -19.440  0.00  0.00     0.040 A 
ENDROOT
BRANCH   3   7
ATOM      7  S1  <0> d  11       2.051   1.508 -23.396  0.00  0.00     0.256 S 
ATOM      8  O2  <0> d  11       1.636   2.864 -23.305  0.00  0.00    -0.201 OA
ATOM      9  O3  <0> d  11       3.393   1.140 -23.685  0.00  0.00    -0.201 OA
BRANCH   7  10
ATOM     10  N1  <0> d  11       1.106   0.799 -24.555  0.00  0.00    -0.324 N 
ATOM     11  H5  <0> d  11       0.513   0.069 -24.317  0.00  0.00     0.169 HD
ATOM     12  H6  <0> d  11       1.144   1.114 -25.471  0.00  0.00     0.169 HD
ENDBRANCH   7  10
ENDBRANCH   3   7
BRANCH   6  13
ATOM     13  C7  <0> d  11       0.656  -1.070 -18.150  0.00  0.00     0.209 C 
ATOM     14  O1  <0> d  11       1.477  -1.109 -17.256  0.00  0.00    -0.644 OA
ATOM     15  O4  <0> d  11      -0.568  -1.599 -17.965  0.00  0.00    -0.644 OA
ENDBRANCH   6  13
TORSDOF 3
ENDMDL
