REMARK INTER + INTRA:          -5.275
REMARK INTER:                  -5.456
REMARK INTRA:                   0.180
REMARK UNBOUND:                 0.180
REMARK  2 active torsions:
REMARK  status: ('A' for Active; 'I' for Inactive)
REMARK    1  A    between atoms: C4_4  and  C6_6 
REMARK    2  A    between atoms: C6_6  and  N1_20 
ROOT
ATOM      1  C7  <0> d  11       2.976   0.893 -17.700  0.00  0.00     0.052 A 
ATOM      2  C8  <0> d  11       3.004   1.985 -18.552  0.00  0.00     0.031 A 
ATOM      3  C9  <0> d  11       3.476   3.204 -18.100  0.00  0.00     0.002 A 
ATOM      4  C10 <0> d  11       3.924   3.344 -16.801  0.00  0.00     0.002 A 
ATOM      5  C11 <0> d  11       3.900   2.259 -15.938  0.00  0.00     0.021 A 
ATOM      6  C12 <0> d  11       3.428   1.040 -16.385  0.00  0.00     0.032 A 
ATOM      7  C13 <0> d  11       3.549  -1.708 -16.440  0.00  0.00     0.032 A 
ATOM      8  C14 <0> d  11       3.085  -1.550 -17.748  0.00  0.00     0.052 A 
ATOM      9  C15 <0> d  11       3.208  -2.601 -18.644  0.00  0.00     0.031 A 
ATOM     10  C16 <0> d  11       3.786  -3.790 -18.239  0.00  0.00     0.002 A 
ATOM     11  C17 <0> d  11       4.244  -3.942 -16.943  0.00  0.00     0.002 A 
ATOM     12  C18 <0> d  11       4.126  -2.898 -16.040  0.00  0.00     0.021 A 
ATOM     13  N1  <0> d  11       2.502  -0.343 -18.150  0.00  0.00    -0.344 N 
ATOM     14  S1  <0> d  11       3.385  -0.360 -15.310  0.00  0.00    -0.086 SA
ENDROOT
BRANCH  13  15
ATOM     15  C6  <0> d  11       1.363  -0.376 -19.072  0.00  0.00     0.136 C 
BRANCH  15  16
ATOM     16  C4  <0> d  11       1.855  -0.121 -20.498  0.00  0.00     0.031 C 
ATOM     17  C3  <0> d  11       1.652  -1.379 -21.382  0.00  0.00     0.035 C 
ATOM     18  C2  <0> d  11       1.542  -0.755 -22.796  0.00  0.00     0.234 C 
ATOM     19  N2  <0> d  11       0.785   0.496 -22.585  0.00  0.00    -0.074 N 
ATOM     20  C1  <0> d  11       1.256   1.544 -23.529  0.00  0.00     0.269 C 
ATOM     21  C5  <0> d  11       0.977   0.940 -21.195  0.00  0.00     0.240 C 
ATOM     22  H21 <0> d  11      -0.212   0.320 -22.751  0.00  0.00     0.279 HD
ENDBRANCH  15  16
ENDBRANCH  13  15
TORSDOF 2
ENDMDL
