REMARK INTER + INTRA:          -7.309
REMARK INTER:                  -5.542
REMARK INTRA:                  -1.767
REMARK UNBOUND:                -1.751
REMARK  4 active torsions:
REMARK  status: ('A' for Active; 'I' for Inactive)
REMARK    1  A    between atoms: C4_4  and  N1_25 
REMARK    2  A    between atoms: C8_8  and  C16_16 
REMARK    3  A    between atoms: C9_9  and  C10_10 
REMARK    4  A    between atoms: C16_16  and  C17_17 
ROOT
ATOM      1  C7  <0> d  11       1.365  -2.104 -19.478  0.00  0.00     0.271 A 
ATOM      2  C8  <0> d  11       1.887  -1.066 -18.679  0.00  0.00     0.044 A 
ATOM      3  C9  <0> d  11       2.633  -0.253 -19.480  0.00  0.00     0.070 A 
ATOM      4  H1  <0> d  11       3.042  -0.390 -21.533  0.00  0.00     0.187 HD
ATOM      5  N1  <0> d  11       1.799  -1.916 -20.739  0.00  0.00    -0.252 N 
ATOM      6  N2  <0> d  11       2.597  -0.765 -20.757  0.00  0.00    -0.294 N 
ATOM      7  O1  <0> d  11       0.647  -3.011 -19.094  0.00  0.00    -0.266 OA
ENDROOT
BRANCH   5   8
ATOM      8  C4  <0> d  11       1.492  -2.768 -21.891  0.00  0.00     0.115 C 
ATOM      9  C3  <0> d  11       1.644  -1.957 -23.181  0.00  0.00     0.055 C 
ATOM     10  C2  <0> d  11       1.382  -2.867 -24.384  0.00  0.00     0.236 C 
ATOM     11  N3  <0> d  11       2.363  -3.974 -24.371  0.00  0.00    -0.075 N 
ATOM     12  C1  <0> d  11       2.203  -4.803 -25.584  0.00  0.00     0.269 C 
ATOM     13  C6  <0> d  11       2.175  -4.805 -23.163  0.00  0.00     0.236 C 
ATOM     14  H26 <0> d  11       3.311  -3.579 -24.358  0.00  0.00     0.279 HD
ATOM     15  C5  <0> d  11       2.461  -3.953 -21.925  0.00  0.00     0.055 C 
ENDBRANCH   5   8
BRANCH   3  16
ATOM     16  C10 <0> d  11       3.357   0.961 -19.050  0.00  0.00    -0.007 A 
ATOM     17  C15 <0> d  11       4.752   0.966 -19.004  0.00  0.00     0.014 A 
ATOM     18  C14 <0> d  11       5.421   2.104 -18.603  0.00  0.00     0.001 A 
ATOM     19  C13 <0> d  11       4.713   3.237 -18.245  0.00  0.00     0.000 A 
ATOM     20  C12 <0> d  11       3.330   3.240 -18.289  0.00  0.00     0.001 A 
ATOM     21  C11 <0> d  11       2.648   2.110 -18.695  0.00  0.00     0.014 A 
ENDBRANCH   3  16
BRANCH   2  22
ATOM     22  C16 <0> d  11       1.657  -0.884 -17.200  0.00  0.00     0.085 C 
BRANCH  22  23
ATOM     23  C17 <0> d  11       2.973  -0.986 -16.471  0.00  0.00    -0.054 A 
ATOM     24  C22 <0> d  11       3.778  -2.094 -16.651  0.00  0.00     0.007 A 
ATOM     25  C21 <0> d  11       4.985  -2.187 -15.983  0.00  0.00     0.001 A 
ATOM     26  C20 <0> d  11       5.386  -1.172 -15.136  0.00  0.00     0.000 A 
ATOM     27  C19 <0> d  11       4.582  -0.060 -14.960  0.00  0.00     0.001 A 
ATOM     28  C18 <0> d  11       3.373   0.031 -15.624  0.00  0.00     0.007 A 
ENDBRANCH  22  23
ENDBRANCH   2  22
TORSDOF 4
ENDMDL
