MODEL 1
REMARK VINA RESULT:    -4.621      0.000      0.000
REMARK INTER + INTRA:          -5.409
REMARK INTER:                  -5.307
REMARK INTRA:                  -0.102
REMARK UNBOUND:                -0.112
REMARK  3 active torsions:
REMARK  status: ('A' for Active; 'I' for Inactive)
REMARK    1  A    between atoms: C3_3  and  S1_15 
REMARK    2  A    between atoms: C6_6  and  C7_7 
REMARK    3  A    between atoms: S1_15  and  N1_10 
ROOT
ATOM      1  C1  <0> d  11       0.634   0.312 -19.312  0.00  0.00     0.020 A 
ATOM      2  C2  <0> d  11       1.484   1.393 -19.190  0.00  0.00     0.026 A 
ATOM      3  C3  <0> d  11       2.517   1.363 -18.271  0.00  0.00     0.079 A 
ATOM      4  C4  <0> d  11       2.705   0.253 -17.466  0.00  0.00     0.026 A 
ATOM      5  C5  <0> d  11       1.860  -0.832 -17.574  0.00  0.00     0.020 A 
ATOM      6  C6  <0> d  11       0.814  -0.808 -18.499  0.00  0.00     0.040 A 
ENDROOT
BRANCH   3   7
ATOM      7  S1  <0> d  11       3.602   2.744 -18.127  0.00  0.00     0.256 S 
ATOM      8  O2  <0> d  11       4.225   2.639 -16.854  0.00  0.00    -0.201 OA
ATOM      9  O3  <0> d  11       4.346   2.806 -19.336  0.00  0.00    -0.201 OA
BRANCH   7  10
ATOM     10  N1  <0> d  11       2.659   4.104 -18.081  0.00  0.00    -0.324 N 
ATOM     11  H5  <0> d  11       2.370   4.464 -17.228  0.00  0.00     0.169 HD
ATOM     12  H6  <0> d  11       2.396   4.540 -18.906  0.00  0.00     0.169 HD
ENDBRANCH   7  10
ENDBRANCH   3   7
BRANCH   6  13
ATOM     13  C7  <0> d  11      -0.095  -1.967 -18.620  0.00  0.00     0.209 C 
ATOM     14  O1  <0> d  11      -1.159  -1.967 -18.033  0.00  0.00    -0.644 OA
ATOM     15  O4  <0> d  11       0.253  -3.020 -19.384  0.00  0.00    -0.644 OA
ENDBRANCH   6  13
TORSDOF 3
ENDMDL
MODEL 2
REMARK VINA RESULT:    -4.455      2.880      5.268
REMARK INTER + INTRA:          -5.218
REMARK INTER:                  -5.110
REMARK INTRA:                  -0.108
REMARK UNBOUND:                -0.112
REMARK  3 active torsions:
REMARK  status: ('A' for Active; 'I' for Inactive)
REMARK    1  A    between atoms: C3_3  and  S1_15 
REMARK    2  A    between atoms: C6_6  and  C7_7 
REMARK    3  A    between atoms: S1_15  and  N1_10 
ROOT
ATOM      1  C1  <0> d  11       1.896   2.547 -19.208  0.00  0.00     0.020 A 
ATOM      2  C2  <0> d  11       1.518   1.272 -19.574  0.00  0.00     0.026 A 
ATOM      3  C3  <0> d  11       2.032   0.176 -18.905  0.00  0.00     0.079 A 
ATOM      4  C4  <0> d  11       2.931   0.350 -17.867  0.00  0.00     0.026 A 
ATOM      5  C5  <0> d  11       3.322   1.619 -17.494  0.00  0.00     0.020 A 
ATOM      6  C6  <0> d  11       2.808   2.729 -18.166  0.00  0.00     0.040 A 
ENDROOT
BRANCH   3   7
ATOM      7  S1  <0> d  11       1.539  -1.449 -19.375  0.00  0.00     0.256 S 
ATOM      8  O2  <0> d  11       1.659  -1.517 -20.789  0.00  0.00    -0.201 OA
ATOM      9  O3  <0> d  11       2.219  -2.347 -18.508  0.00  0.00    -0.201 OA
BRANCH   7  10
ATOM     10  N1  <0> d  11      -0.074  -1.589 -19.030  0.00  0.00    -0.324 N 
ATOM     11  H5  <0> d  11      -0.589  -2.319 -19.409  0.00  0.00     0.169 HD
ATOM     12  H6  <0> d  11      -0.504  -0.943 -18.448  0.00  0.00     0.169 HD
ENDBRANCH   7  10
ENDBRANCH   3   7
BRANCH   6  13
ATOM     13  C7  <0> d  11       3.222   4.092 -17.771  0.00  0.00     0.209 C 
ATOM     14  O1  <0> d  11       4.391   4.328 -17.543  0.00  0.00    -0.644 OA
ATOM     15  O4  <0> d  11       2.303   5.072 -17.670  0.00  0.00    -0.644 OA
ENDBRANCH   6  13
TORSDOF 3
ENDMDL
MODEL 3
REMARK VINA RESULT:    -3.970      3.561      4.165
REMARK INTER + INTRA:          -4.663
REMARK INTER:                  -4.561
REMARK INTRA:                  -0.102
REMARK UNBOUND:                -0.112
REMARK  3 active torsions:
REMARK  status: ('A' for Active; 'I' for Inactive)
REMARK    1  A    between atoms: C3_3  and  S1_15 
REMARK    2  A    between atoms: C6_6  and  C7_7 
REMARK    3  A    between atoms: S1_15  and  N1_10 
ROOT
ATOM      1  C1  <0> d  11       1.510  -1.193 -20.499  0.00  0.00     0.020 A 
ATOM      2  C2  <0> d  11       1.832  -0.585 -21.695  0.00  0.00     0.026 A 
ATOM      3  C3  <0> d  11       1.624   0.772 -21.863  0.00  0.00     0.079 A 
ATOM      4  C4  <0> d  11       1.090   1.529 -20.836  0.00  0.00     0.026 A 
ATOM      5  C5  <0> d  11       0.758   0.934 -19.636  0.00  0.00     0.020 A 
ATOM      6  C6  <0> d  11       0.964  -0.435 -19.460  0.00  0.00     0.040 A 
ENDROOT
BRANCH   3   7
ATOM      7  S1  <0> d  11       2.045   1.540 -23.392  0.00  0.00     0.256 S 
ATOM      8  O2  <0> d  11       1.601   2.888 -23.304  0.00  0.00    -0.201 OA
ATOM      9  O3  <0> d  11       3.399   1.200 -23.660  0.00  0.00    -0.201 OA
BRANCH   7  10
ATOM     10  N1  <0> d  11       1.133   0.818 -24.570  0.00  0.00    -0.324 N 
ATOM     11  H5  <0> d  11       0.765  -0.068 -24.423  0.00  0.00     0.169 HD
ATOM     12  H6  <0> d  11       0.967   1.279 -25.406  0.00  0.00     0.169 HD
ENDBRANCH   7  10
ENDBRANCH   3   7
BRANCH   6  13
ATOM     13  C7  <0> d  11       0.612  -1.080 -18.178  0.00  0.00     0.209 C 
ATOM     14  O1  <0> d  11       1.416  -1.100 -17.268  0.00  0.00    -0.644 OA
ATOM     15  O4  <0> d  11      -0.603  -1.641 -18.017  0.00  0.00    -0.644 OA
ENDBRANCH   6  13
TORSDOF 3
ENDMDL
MODEL 4
REMARK VINA RESULT:    -3.942      3.844      5.207
REMARK INTER + INTRA:          -4.630
REMARK INTER:                  -4.518
REMARK INTRA:                  -0.112
REMARK UNBOUND:                -0.112
REMARK  3 active torsions:
REMARK  status: ('A' for Active; 'I' for Inactive)
REMARK    1  A    between atoms: C3_3  and  S1_15 
REMARK    2  A    between atoms: C6_6  and  C7_7 
REMARK    3  A    between atoms: S1_15  and  N1_10 
ROOT
ATOM      1  C1  <0> d  11       1.072   1.606 -20.977  0.00  0.00     0.020 A 
ATOM      2  C2  <0> d  11       0.921   0.895 -19.805  0.00  0.00     0.026 A 
ATOM      3  C3  <0> d  11       1.195  -0.460 -19.774  0.00  0.00     0.079 A 
ATOM      4  C4  <0> d  11       1.618  -1.114 -20.919  0.00  0.00     0.026 A 
ATOM      5  C5  <0> d  11       1.768  -0.416 -22.099  0.00  0.00     0.020 A 
ATOM      6  C6  <0> d  11       1.493   0.952 -22.137  0.00  0.00     0.040 A 
ENDROOT
BRANCH   3   7
ATOM      7  S1  <0> d  11       1.007  -1.360 -18.271  0.00  0.00     0.256 S 
ATOM      8  O2  <0> d  11       1.866  -0.745 -17.320  0.00  0.00    -0.201 OA
ATOM      9  O3  <0> d  11      -0.391  -1.502 -18.054  0.00  0.00    -0.201 OA
BRANCH   7  10
ATOM     10  N1  <0> d  11       1.603  -2.882 -18.533  0.00  0.00    -0.324 N 
ATOM     11  H5  <0> d  11       1.009  -3.648 -18.490  0.00  0.00     0.169 HD
ATOM     12  H6  <0> d  11       2.544  -3.007 -18.731  0.00  0.00     0.169 HD
ENDBRANCH   7  10
ENDBRANCH   3   7
BRANCH   6  13
ATOM     13  C7  <0> d  11       1.651   1.706 -23.399  0.00  0.00     0.209 C 
ATOM     14  O1  <0> d  11       1.796   1.110 -24.447  0.00  0.00    -0.644 OA
ATOM     15  O4  <0> d  11       1.630   3.053 -23.386  0.00  0.00    -0.644 OA
ENDBRANCH   6  13
TORSDOF 3
ENDMDL
MODEL 5
REMARK VINA RESULT:    -3.893      3.824      5.262
REMARK INTER + INTRA:          -4.574
REMARK INTER:                  -4.463
REMARK INTRA:                  -0.112
REMARK UNBOUND:                -0.112
REMARK  3 active torsions:
REMARK  status: ('A' for Active; 'I' for Inactive)
REMARK    1  A    between atoms: C3_3  and  S1_15 
REMARK    2  A    between atoms: C6_6  and  C7_7 
REMARK    3  A    between atoms: S1_15  and  N1_10 
ROOT
ATOM      1  C1  <0> d  11       1.776  -0.383 -22.237  0.00  0.00     0.020 A 
ATOM      2  C2  <0> d  11       1.619  -1.132 -21.089  0.00  0.00     0.026 A 
ATOM      3  C3  <0> d  11       1.110  -0.549 -19.943  0.00  0.00     0.079 A 
ATOM      4  C4  <0> d  11       0.760   0.790 -19.937  0.00  0.00     0.026 A 
ATOM      5  C5  <0> d  11       0.917   1.553 -21.075  0.00  0.00     0.020 A 
ATOM      6  C6  <0> d  11       1.430   0.970 -22.235  0.00  0.00     0.040 A 
ENDROOT
BRANCH   3   7
ATOM      7  S1  <0> d  11       0.906  -1.515 -18.484  0.00  0.00     0.256 S 
ATOM      8  O2  <0> d  11       1.180  -2.862 -18.847  0.00  0.00    -0.201 OA
ATOM      9  O3  <0> d  11       1.615  -0.846 -17.449  0.00  0.00    -0.201 OA
BRANCH   7  10
ATOM     10  N1  <0> d  11      -0.697  -1.452 -18.076  0.00  0.00    -0.324 N 
ATOM     11  H5  <0> d  11      -0.960  -1.180 -17.182  0.00  0.00     0.169 HD
ATOM     12  H6  <0> d  11      -1.374  -1.686 -18.730  0.00  0.00     0.169 HD
ENDBRANCH   7  10
ENDBRANCH   3   7
BRANCH   6  13
ATOM     13  C7  <0> d  11       1.602   1.781 -23.459  0.00  0.00     0.209 C 
ATOM     14  O1  <0> d  11       1.712   2.988 -23.377  0.00  0.00    -0.644 OA
ATOM     15  O4  <0> d  11       1.639   1.182 -24.665  0.00  0.00    -0.644 OA
ENDBRANCH   6  13
TORSDOF 3
ENDMDL
