MODEL 1
REMARK VINA RESULT:    -4.964      0.000      0.000
REMARK INTER + INTRA:          -7.917
REMARK INTER:                  -6.592
REMARK INTRA:                  -1.325
REMARK UNBOUND:                -1.792
REMARK  4 active torsions:
REMARK  status: ('A' for Active; 'I' for Inactive)
REMARK    1  A    between atoms: C4_4  and  N1_25 
REMARK    2  A    between atoms: C8_8  and  C16_16 
REMARK    3  A    between atoms: C9_9  and  C10_10 
REMARK    4  A    between atoms: C16_16  and  C17_17 
ROOT
ATOM      1  C7  <0> d  11       3.098   2.594 -18.107  0.00  0.00     0.271 A 
ATOM      2  C8  <0> d  11       2.273   1.691 -18.808  0.00  0.00     0.044 A 
ATOM      3  C9  <0> d  11       2.270   0.509 -18.130  0.00  0.00     0.070 A 
ATOM      4  H1  <0> d  11       3.267  -0.034 -16.366  0.00  0.00     0.187 HD
ATOM      5  N1  <0> d  11       3.586   1.956 -17.026  0.00  0.00    -0.252 N 
ATOM      6  N2  <0> d  11       3.082   0.650 -17.028  0.00  0.00    -0.294 N 
ATOM      7  O1  <0> d  11       3.327   3.748 -18.424  0.00  0.00    -0.266 OA
ENDROOT
BRANCH   5   8
ATOM      8  C4  <0> d  11       4.490   2.529 -16.024  0.00  0.00     0.115 C 
ATOM      9  C3  <0> d  11       5.713   3.129 -16.721  0.00  0.00     0.055 C 
ATOM     10  C2  <0> d  11       6.623   3.779 -15.676  0.00  0.00     0.236 C 
ATOM     11  N3  <0> d  11       5.871   4.846 -14.983  0.00  0.00    -0.075 N 
ATOM     12  C1  <0> d  11       6.761   5.565 -14.048  0.00  0.00     0.269 C 
ATOM     13  C6  <0> d  11       4.728   4.265 -14.246  0.00  0.00     0.236 C 
ATOM     14  H26 <0> d  11       5.515   5.510 -15.681  0.00  0.00     0.279 HD
ATOM     15  C5  <0> d  11       3.762   3.631 -15.249  0.00  0.00     0.055 C 
ENDBRANCH   5   8
BRANCH   3  16
ATOM     16  C10 <0> d  11       1.529  -0.711 -18.513  0.00  0.00    -0.007 A 
ATOM     17  C15 <0> d  11       2.190  -1.760 -19.154  0.00  0.00     0.014 A 
ATOM     18  C14 <0> d  11       1.492  -2.896 -19.509  0.00  0.00     0.001 A 
ATOM     19  C13 <0> d  11       0.140  -2.995 -19.232  0.00  0.00     0.000 A 
ATOM     20  C12 <0> d  11      -0.521  -1.959 -18.597  0.00  0.00     0.001 A 
ATOM     21  C11 <0> d  11       0.167  -0.820 -18.231  0.00  0.00     0.014 A 
ENDBRANCH   3  16
BRANCH   2  22
ATOM     22  C16 <0> d  11       1.521   1.983 -20.082  0.00  0.00     0.085 C 
BRANCH  22  23
ATOM     23  C17 <0> d  11       2.037   1.094 -21.184  0.00  0.00    -0.054 A 
ATOM     24  C22 <0> d  11       3.398   0.971 -21.392  0.00  0.00     0.007 A 
ATOM     25  C21 <0> d  11       3.871   0.155 -22.403  0.00  0.00     0.001 A 
ATOM     26  C20 <0> d  11       2.983  -0.537 -23.205  0.00  0.00     0.000 A 
ATOM     27  C19 <0> d  11       1.623  -0.417 -22.994  0.00  0.00     0.001 A 
ATOM     28  C18 <0> d  11       1.150   0.403 -21.987  0.00  0.00     0.007 A 
ENDBRANCH  22  23
ENDBRANCH   2  22
TORSDOF 4
ENDMDL
MODEL 2
REMARK VINA RESULT:    -4.606      1.437      3.368
REMARK INTER + INTRA:          -7.475
REMARK INTER:                  -5.765
REMARK INTRA:                  -1.710
REMARK UNBOUND:                -1.792
REMARK  4 active torsions:
REMARK  status: ('A' for Active; 'I' for Inactive)
REMARK    1  A    between atoms: C4_4  and  N1_25 
REMARK    2  A    between atoms: C8_8  and  C16_16 
REMARK    3  A    between atoms: C9_9  and  C10_10 
REMARK    4  A    between atoms: C16_16  and  C17_17 
ROOT
ATOM      1  C7  <0> d  11       3.005   0.355 -16.877  0.00  0.00     0.271 A 
ATOM      2  C8  <0> d  11       2.325  -0.111 -18.020  0.00  0.00     0.044 A 
ATOM      3  C9  <0> d  11       2.760   0.611 -19.092  0.00  0.00     0.070 A 
ATOM      4  H1  <0> d  11       4.163   2.167 -19.188  0.00  0.00     0.187 HD
ATOM      5  N1  <0> d  11       3.833   1.347 -17.260  0.00  0.00    -0.252 N 
ATOM      6  N2  <0> d  11       3.689   1.522 -18.643  0.00  0.00    -0.294 N 
ATOM      7  O1  <0> d  11       2.868  -0.066 -15.741  0.00  0.00    -0.266 OA
ENDROOT
BRANCH   5   8
ATOM      8  C4  <0> d  11       4.726   2.110 -16.384  0.00  0.00     0.115 C 
ATOM      9  C3  <0> d  11       5.786   2.821 -17.229  0.00  0.00     0.055 C 
ATOM     10  C2  <0> d  11       6.678   3.664 -16.315  0.00  0.00     0.236 C 
ATOM     11  N3  <0> d  11       5.843   4.664 -15.618  0.00  0.00    -0.075 N 
ATOM     12  C1  <0> d  11       6.696   5.565 -14.815  0.00  0.00     0.269 C 
ATOM     13  C6  <0> d  11       4.862   3.986 -14.743  0.00  0.00     0.236 C 
ATOM     14  H26 <0> d  11       5.336   5.221 -16.317  0.00  0.00     0.279 HD
ATOM     15  C5  <0> d  11       3.916   3.153 -15.611  0.00  0.00     0.055 C 
ENDBRANCH   5   8
BRANCH   3  16
ATOM     16  C10 <0> d  11       2.311   0.446 -20.490  0.00  0.00    -0.007 A 
ATOM     17  C15 <0> d  11       3.062  -0.323 -21.381  0.00  0.00     0.014 A 
ATOM     18  C14 <0> d  11       2.637  -0.473 -22.685  0.00  0.00     0.001 A 
ATOM     19  C13 <0> d  11       1.469   0.137 -23.110  0.00  0.00     0.000 A 
ATOM     20  C12 <0> d  11       0.720   0.899 -22.231  0.00  0.00     0.001 A 
ATOM     21  C11 <0> d  11       1.131   1.052 -20.923  0.00  0.00     0.014 A 
ENDBRANCH   3  16
BRANCH   2  22
ATOM     22  C16 <0> d  11       1.300  -1.216 -18.053  0.00  0.00     0.085 C 
BRANCH  22  23
ATOM     23  C17 <0> d  11       1.845  -2.381 -18.839  0.00  0.00    -0.054 A 
ATOM     24  C22 <0> d  11       1.091  -2.947 -19.849  0.00  0.00     0.007 A 
ATOM     25  C21 <0> d  11       1.591  -4.015 -20.570  0.00  0.00     0.001 A 
ATOM     26  C20 <0> d  11       2.847  -4.517 -20.280  0.00  0.00     0.000 A 
ATOM     27  C19 <0> d  11       3.602  -3.948 -19.273  0.00  0.00     0.001 A 
ATOM     28  C18 <0> d  11       3.100  -2.883 -18.549  0.00  0.00     0.007 A 
ENDBRANCH  22  23
ENDBRANCH   2  22
TORSDOF 4
ENDMDL
MODEL 3
REMARK VINA RESULT:    -4.530      3.520      8.023
REMARK INTER + INTRA:          -7.381
REMARK INTER:                  -5.647
REMARK INTRA:                  -1.734
REMARK UNBOUND:                -1.792
REMARK  4 active torsions:
REMARK  status: ('A' for Active; 'I' for Inactive)
REMARK    1  A    between atoms: C4_4  and  N1_25 
REMARK    2  A    between atoms: C8_8  and  C16_16 
REMARK    3  A    between atoms: C9_9  and  C10_10 
REMARK    4  A    between atoms: C16_16  and  C17_17 
ROOT
ATOM      1  C7  <0> d  11       1.322  -2.302 -19.547  0.00  0.00     0.271 A 
ATOM      2  C8  <0> d  11       1.753  -1.218 -18.756  0.00  0.00     0.044 A 
ATOM      3  C9  <0> d  11       2.394  -0.332 -19.570  0.00  0.00     0.070 A 
ATOM      4  H1  <0> d  11       2.768  -0.423 -21.632  0.00  0.00     0.187 HD
ATOM      5  N1  <0> d  11       1.706  -2.069 -20.817  0.00  0.00    -0.252 N 
ATOM      6  N2  <0> d  11       2.381  -0.842 -20.848  0.00  0.00    -0.294 N 
ATOM      7  O1  <0> d  11       0.709  -3.278 -19.150  0.00  0.00    -0.266 OA
ENDROOT
BRANCH   5   8
ATOM      8  C4  <0> d  11       1.461  -2.946 -21.965  0.00  0.00     0.115 C 
ATOM      9  C3  <0> d  11       1.646  -2.155 -23.263  0.00  0.00     0.055 C 
ATOM     10  C2  <0> d  11       1.449  -3.090 -24.458  0.00  0.00     0.236 C 
ATOM     11  N3  <0> d  11       2.449  -4.175 -24.388  0.00  0.00    -0.075 N 
ATOM     12  C1  <0> d  11       2.354  -5.029 -25.591  0.00  0.00     0.269 C 
ATOM     13  C6  <0> d  11       2.232  -4.990 -23.173  0.00  0.00     0.236 C 
ATOM     14  H26 <0> d  11       3.388  -3.761 -24.348  0.00  0.00     0.279 HD
ATOM     15  C5  <0> d  11       2.453  -4.111 -21.941  0.00  0.00     0.055 C 
ENDBRANCH   5   8
BRANCH   3  16
ATOM     16  C10 <0> d  11       3.000   0.949 -19.152  0.00  0.00    -0.007 A 
ATOM     17  C15 <0> d  11       2.186   2.017 -18.768  0.00  0.00     0.014 A 
ATOM     18  C14 <0> d  11       2.758   3.210 -18.378  0.00  0.00     0.001 A 
ATOM     19  C13 <0> d  11       4.135   3.351 -18.370  0.00  0.00     0.000 A 
ATOM     20  C12 <0> d  11       4.947   2.297 -18.749  0.00  0.00     0.001 A 
ATOM     21  C11 <0> d  11       4.388   1.096 -19.135  0.00  0.00     0.014 A 
ENDBRANCH   3  16
BRANCH   2  22
ATOM     22  C16 <0> d  11       1.538  -1.062 -17.272  0.00  0.00     0.085 C 
BRANCH  22  23
ATOM     23  C17 <0> d  11       2.873  -1.043 -16.572  0.00  0.00    -0.054 A 
ATOM     24  C22 <0> d  11       3.200   0.006 -15.735  0.00  0.00     0.007 A 
ATOM     25  C21 <0> d  11       4.424   0.024 -15.092  0.00  0.00     0.001 A 
ATOM     26  C20 <0> d  11       5.321  -1.010 -15.288  0.00  0.00     0.000 A 
ATOM     27  C19 <0> d  11       4.993  -2.061 -16.123  0.00  0.00     0.001 A 
ATOM     28  C18 <0> d  11       3.771  -2.075 -16.769  0.00  0.00     0.007 A 
ENDBRANCH  22  23
ENDBRANCH   2  22
TORSDOF 4
ENDMDL
MODEL 4
REMARK VINA RESULT:    -4.440      3.219      7.087
REMARK INTER + INTRA:          -7.271
REMARK INTER:                  -5.786
REMARK INTRA:                  -1.485
REMARK UNBOUND:                -1.792
REMARK  4 active torsions:
REMARK  status: ('A' for Active; 'I' for Inactive)
REMARK    1  A    between atoms: C4_4  and  N1_25 
REMARK    2  A    between atoms: C8_8  and  C16_16 
REMARK    3  A    between atoms: C9_9  and  C10_10 
REMARK    4  A    between atoms: C16_16  and  C17_17 
ROOT
ATOM      1  C7  <0> d  11       1.535  -0.550 -19.088  0.00  0.00     0.271 A 
ATOM      2  C8  <0> d  11       2.398  -1.104 -18.121  0.00  0.00     0.044 A 
ATOM      3  C9  <0> d  11       3.510  -1.563 -18.763  0.00  0.00     0.070 A 
ATOM      4  H1  <0> d  11       3.995  -1.538 -20.804  0.00  0.00     0.187 HD
ATOM      5  N1  <0> d  11       2.123  -0.680 -20.294  0.00  0.00    -0.252 N 
ATOM      6  N2  <0> d  11       3.357  -1.316 -20.108  0.00  0.00    -0.294 N 
ATOM      7  O1  <0> d  11       0.449  -0.041 -18.871  0.00  0.00    -0.266 OA
ENDROOT
BRANCH   5   8
ATOM      8  C4  <0> d  11       1.567  -0.237 -21.575  0.00  0.00     0.115 C 
ATOM      9  C3  <0> d  11       1.994   1.208 -21.846  0.00  0.00     0.055 C 
ATOM     10  C2  <0> d  11       1.462   1.645 -23.212  0.00  0.00     0.236 C 
ATOM     11  N3  <0> d  11       2.022   0.757 -24.252  0.00  0.00    -0.075 N 
ATOM     12  C1  <0> d  11       1.613   1.227 -25.592  0.00  0.00     0.269 C 
ATOM     13  C6  <0> d  11       1.554  -0.630 -24.040  0.00  0.00     0.236 C 
ATOM     14  H26 <0> d  11       3.047   0.776 -24.190  0.00  0.00     0.279 HD
ATOM     15  C5  <0> d  11       2.091  -1.135 -22.699  0.00  0.00     0.055 C 
ENDBRANCH   5   8
BRANCH   3  16
ATOM     16  C10 <0> d  11       4.674  -2.214 -18.126  0.00  0.00    -0.007 A 
ATOM     17  C15 <0> d  11       4.626  -3.570 -17.798  0.00  0.00     0.014 A 
ATOM     18  C14 <0> d  11       5.715  -4.172 -17.204  0.00  0.00     0.001 A 
ATOM     19  C13 <0> d  11       6.854  -3.433 -16.931  0.00  0.00     0.000 A 
ATOM     20  C12 <0> d  11       6.909  -2.089 -17.254  0.00  0.00     0.001 A 
ATOM     21  C11 <0> d  11       5.827  -1.477 -17.854  0.00  0.00     0.014 A 
ENDBRANCH   3  16
BRANCH   2  22
ATOM     22  C16 <0> d  11       2.140  -1.174 -16.638  0.00  0.00     0.085 C 
BRANCH  22  23
ATOM     23  C17 <0> d  11       2.989  -0.149 -15.932  0.00  0.00    -0.054 A 
ATOM     24  C22 <0> d  11       3.417  -0.376 -14.638  0.00  0.00     0.007 A 
ATOM     25  C21 <0> d  11       4.197   0.564 -13.991  0.00  0.00     0.001 A 
ATOM     26  C20 <0> d  11       4.549   1.733 -14.641  0.00  0.00     0.000 A 
ATOM     27  C19 <0> d  11       4.125   1.959 -15.936  0.00  0.00     0.001 A 
ATOM     28  C18 <0> d  11       3.341   1.021 -16.581  0.00  0.00     0.007 A 
ENDBRANCH  22  23
ENDBRANCH   2  22
TORSDOF 4
ENDMDL
MODEL 5
REMARK VINA RESULT:    -4.439      1.444      2.183
REMARK INTER + INTRA:          -7.270
REMARK INTER:                  -5.477
REMARK INTRA:                  -1.792
REMARK UNBOUND:                -1.792
REMARK  4 active torsions:
REMARK  status: ('A' for Active; 'I' for Inactive)
REMARK    1  A    between atoms: C4_4  and  N1_25 
REMARK    2  A    between atoms: C8_8  and  C16_16 
REMARK    3  A    between atoms: C9_9  and  C10_10 
REMARK    4  A    between atoms: C16_16  and  C17_17 
ROOT
ATOM      1  C7  <0> d  11       2.237   1.785 -18.964  0.00  0.00     0.271 A 
ATOM      2  C8  <0> d  11       1.835   0.691 -19.756  0.00  0.00     0.044 A 
ATOM      3  C9  <0> d  11       2.407  -0.434 -19.240  0.00  0.00     0.070 A 
ATOM      4  H1  <0> d  11       3.683  -0.662 -17.591  0.00  0.00     0.187 HD
ATOM      5  N1  <0> d  11       3.043   1.320 -17.990  0.00  0.00    -0.252 N 
ATOM      6  N2  <0> d  11       3.163  -0.066 -18.151  0.00  0.00    -0.294 N 
ATOM      7  O1  <0> d  11       1.911   2.948 -19.132  0.00  0.00    -0.266 OA
ENDROOT
BRANCH   5   8
ATOM      8  C4  <0> d  11       3.684   2.125 -16.946  0.00  0.00     0.115 C 
ATOM      9  C3  <0> d  11       3.736   1.324 -15.643  0.00  0.00     0.055 C 
ATOM     10  C2  <0> d  11       4.461   2.145 -14.574  0.00  0.00     0.236 C 
ATOM     11  N3  <0> d  11       5.834   2.432 -15.037  0.00  0.00    -0.075 N 
ATOM     12  C1  <0> d  11       6.591   3.127 -13.975  0.00  0.00     0.269 C 
ATOM     13  C6  <0> d  11       5.793   3.268 -16.257  0.00  0.00     0.236 C 
ATOM     14  H26 <0> d  11       6.304   1.546 -15.256  0.00  0.00     0.279 HD
ATOM     15  C5  <0> d  11       5.110   2.479 -17.376  0.00  0.00     0.055 C 
ENDBRANCH   5   8
BRANCH   3  16
ATOM     16  C10 <0> d  11       2.246  -1.807 -19.762  0.00  0.00    -0.007 A 
ATOM     17  C15 <0> d  11       1.057  -2.505 -19.543  0.00  0.00     0.014 A 
ATOM     18  C14 <0> d  11       0.913  -3.787 -20.032  0.00  0.00     0.001 A 
ATOM     19  C13 <0> d  11       1.944  -4.381 -20.738  0.00  0.00     0.000 A 
ATOM     20  C12 <0> d  11       3.125  -3.695 -20.960  0.00  0.00     0.001 A 
ATOM     21  C11 <0> d  11       3.280  -2.410 -20.480  0.00  0.00     0.014 A 
ENDBRANCH   3  16
BRANCH   2  22
ATOM     22  C16 <0> d  11       0.929   0.752 -20.959  0.00  0.00     0.085 C 
BRANCH  22  23
ATOM     23  C17 <0> d  11       1.705   0.366 -22.192  0.00  0.00    -0.054 A 
ATOM     24  C22 <0> d  11       2.851   1.059 -22.532  0.00  0.00     0.007 A 
ATOM     25  C21 <0> d  11       3.564   0.705 -23.663  0.00  0.00     0.001 A 
ATOM     26  C20 <0> d  11       3.129  -0.343 -24.453  0.00  0.00     0.000 A 
ATOM     27  C19 <0> d  11       1.985  -1.039 -24.110  0.00  0.00     0.001 A 
ATOM     28  C18 <0> d  11       1.270  -0.681 -22.983  0.00  0.00     0.007 A 
ENDBRANCH  22  23
ENDBRANCH   2  22
TORSDOF 4
ENDMDL
