REMARK INTER + INTRA:          -6.564
REMARK INTER:                  -5.913
REMARK INTRA:                  -0.651
REMARK UNBOUND:                -0.489
REMARK  3 active torsions:
REMARK  status: ('A' for Active; 'I' for Inactive)
REMARK    1  A    between atoms: C4_4  and  C7_7 
REMARK    2  A    between atoms: C14_14  and  C16_16 
REMARK    3  A    between atoms: C16_16  and  C17_17 
ROOT
ATOM      1  C7  <0> d  11       2.572   1.661 -18.721  0.00  0.00     0.090 A 
ATOM      2  C8  <0> d  11       2.439   3.013 -18.791  0.00  0.00     0.093 A 
ATOM      3  C9  <0> d  11       2.800   3.807 -17.677  0.00  0.00     0.187 A 
ATOM      4  C10 <0> d  11       3.318   3.108 -16.485  0.00  0.00     0.048 A 
ATOM      5  C11 <0> d  11       3.702   3.809 -15.343  0.00  0.00     0.018 A 
ATOM      6  C12 <0> d  11       4.181   3.119 -14.250  0.00  0.00     0.002 A 
ATOM      7  C13 <0> d  11       4.281   1.736 -14.285  0.00  0.00     0.010 A 
ATOM      8  C14 <0> d  11       3.906   1.032 -15.409  0.00  0.00    -0.013 A 
ATOM      9  C15 <0> d  11       3.420   1.708 -16.522  0.00  0.00     0.097 A 
ATOM     10  O1  <0> d  11       2.689   5.022 -17.701  0.00  0.00    -0.287 OA
ATOM     11  O2  <0> d  11       3.046   1.038 -17.631  0.00  0.00    -0.308 OA
ENDROOT
BRANCH   1  12
ATOM     12  C4  <0> d  11       2.186   0.848 -19.891  0.00  0.00    -0.002 A 
ATOM     13  C3  <0> d  11       1.452   1.422 -20.932  0.00  0.00     0.014 A 
ATOM     14  C2  <0> d  11       1.095   0.657 -22.023  0.00  0.00     0.001 A 
ATOM     15  C1  <0> d  11       1.462  -0.677 -22.087  0.00  0.00     0.000 A 
ATOM     16  C6  <0> d  11       2.189  -1.251 -21.060  0.00  0.00     0.001 A 
ATOM     17  C5  <0> d  11       2.558  -0.496 -19.965  0.00  0.00     0.014 A 
ENDBRANCH   1  12
BRANCH   8  18
ATOM     18  C16 <0> d  11       4.022  -0.471 -15.432  0.00  0.00     0.154 C 
BRANCH  18  19
ATOM     19  C17 <0> d  11       5.440  -0.861 -15.764  0.00  0.00     0.177 C 
ATOM     20  O3  <0> d  11       6.199  -1.188 -14.882  0.00  0.00    -0.648 OA
ATOM     21  O4  <0> d  11       5.859  -0.843 -17.039  0.00  0.00    -0.648 OA
ENDBRANCH  18  19
ENDBRANCH   8  18
TORSDOF 3
ENDMDL
