REMARK INTER + INTRA:          -5.713
REMARK INTER:                  -5.075
REMARK INTRA:                  -0.638
REMARK UNBOUND:                -0.441
REMARK  2 active torsions:
REMARK  status: ('A' for Active; 'I' for Inactive)
REMARK    1  A    between atoms: C4_4  and  C6_6 
REMARK    2  A    between atoms: C6_6  and  N1_20 
ROOT
ATOM      1  C7  <0> d  11       2.202  -1.053 -19.605  0.00  0.00     0.052 A 
ATOM      2  C8  <0> d  11       1.097  -1.888 -19.640  0.00  0.00     0.031 A 
ATOM      3  C9  <0> d  11       1.236  -3.232 -19.344  0.00  0.00     0.002 A 
ATOM      4  C10 <0> d  11       2.472  -3.752 -19.012  0.00  0.00     0.002 A 
ATOM      5  C11 <0> d  11       3.585  -2.926 -18.975  0.00  0.00     0.021 A 
ATOM      6  C12 <0> d  11       3.451  -1.584 -19.271  0.00  0.00     0.032 A 
ATOM      7  C13 <0> d  11       4.116   1.050 -18.833  0.00  0.00     0.032 A 
ATOM      8  C14 <0> d  11       2.793   1.288 -19.215  0.00  0.00     0.052 A 
ATOM      9  C15 <0> d  11       2.208   2.506 -18.908  0.00  0.00     0.031 A 
ATOM     10  C16 <0> d  11       2.931   3.470 -18.229  0.00  0.00     0.002 A 
ATOM     11  C17 <0> d  11       4.240   3.229 -17.853  0.00  0.00     0.002 A 
ATOM     12  C18 <0> d  11       4.835   2.015 -18.155  0.00  0.00     0.021 A 
ATOM     13  N1  <0> d  11       2.068   0.308 -19.901  0.00  0.00    -0.344 N 
ATOM     14  S1  <0> d  11       4.849  -0.507 -19.233  0.00  0.00    -0.086 SA
ENDROOT
BRANCH  13  15
ATOM     15  C6  <0> d  11       1.140   0.719 -20.958  0.00  0.00     0.136 C 
BRANCH  15  16
ATOM     16  C4  <0> d  11       1.852   0.668 -22.310  0.00  0.00     0.031 C 
ATOM     17  C3  <0> d  11       1.376  -0.558 -23.134  0.00  0.00     0.035 C 
ATOM     18  C2  <0> d  11       1.634  -0.078 -24.584  0.00  0.00     0.234 C 
ATOM     19  N2  <0> d  11       1.280   1.355 -24.565  0.00  0.00    -0.074 N 
ATOM     20  C1  <0> d  11       2.159   2.112 -25.494  0.00  0.00     0.269 C 
ATOM     21  C5  <0> d  11       1.433   1.863 -23.193  0.00  0.00     0.240 C 
ATOM     22  H21 <0> d  11       0.303   1.468 -24.862  0.00  0.00     0.279 HD
ENDBRANCH  15  16
ENDBRANCH  13  15
TORSDOF 2
ENDMDL
