REMARK INTER + INTRA:          -6.556
REMARK INTER:                  -5.910
REMARK INTRA:                  -0.647
REMARK UNBOUND:                -0.625
REMARK  3 active torsions:
REMARK  status: ('A' for Active; 'I' for Inactive)
REMARK    1  A    between atoms: C4_4  and  C7_7 
REMARK    2  A    between atoms: C14_14  and  C16_16 
REMARK    3  A    between atoms: C16_16  and  C17_17 
ROOT
ATOM      1  C7  <0> d  11       2.643   0.404 -18.974  0.00  0.00     0.090 A 
ATOM      2  C8  <0> d  11       2.740  -0.865 -18.492  0.00  0.00     0.093 A 
ATOM      3  C9  <0> d  11       2.431  -1.957 -19.337  0.00  0.00     0.187 A 
ATOM      4  C10 <0> d  11       2.022  -1.648 -20.721  0.00  0.00     0.048 A 
ATOM      5  C11 <0> d  11       1.703  -2.659 -21.625  0.00  0.00     0.018 A 
ATOM      6  C12 <0> d  11       1.326  -2.330 -22.909  0.00  0.00     0.002 A 
ATOM      7  C13 <0> d  11       1.263  -1.001 -23.301  0.00  0.00     0.010 A 
ATOM      8  C14 <0> d  11       1.577   0.008 -22.416  0.00  0.00    -0.013 A 
ATOM      9  C15 <0> d  11       1.960  -0.302 -21.116  0.00  0.00     0.097 A 
ATOM     10  O1  <0> d  11       2.502  -3.107 -18.938  0.00  0.00    -0.287 OA
ATOM     11  O2  <0> d  11       2.270   0.670 -20.235  0.00  0.00    -0.308 OA
ENDROOT
BRANCH   1  12
ATOM     12  C4  <0> d  11       2.965   1.530 -18.076  0.00  0.00    -0.002 A 
ATOM     13  C3  <0> d  11       2.770   2.846 -18.502  0.00  0.00     0.014 A 
ATOM     14  C2  <0> d  11       3.073   3.893 -17.657  0.00  0.00     0.001 A 
ATOM     15  C1  <0> d  11       3.567   3.644 -16.390  0.00  0.00     0.000 A 
ATOM     16  C6  <0> d  11       3.763   2.343 -15.960  0.00  0.00     0.001 A 
ATOM     17  C5  <0> d  11       3.459   1.286 -16.792  0.00  0.00     0.014 A 
ENDBRANCH   1  12
BRANCH   8  18
ATOM     18  C16 <0> d  11       1.506   1.448 -22.857  0.00  0.00     0.154 C 
BRANCH  18  19
ATOM     19  C17 <0> d  11       2.577   1.713 -23.883  0.00  0.00     0.177 C 
ATOM     20  O3  <0> d  11       3.731   1.813 -23.540  0.00  0.00    -0.648 OA
ATOM     21  O4  <0> d  11       2.249   1.836 -25.178  0.00  0.00    -0.648 OA
ENDBRANCH  18  19
ENDBRANCH   8  18
TORSDOF 3
ENDMDL
