REMARK INTER + INTRA:          -7.909
REMARK INTER:                  -6.577
REMARK INTRA:                  -1.332
REMARK UNBOUND:                -1.751
REMARK  4 active torsions:
REMARK  status: ('A' for Active; 'I' for Inactive)
REMARK    1  A    between atoms: C4_4  and  N1_25 
REMARK    2  A    between atoms: C8_8  and  C16_16 
REMARK    3  A    between atoms: C9_9  and  C10_10 
REMARK    4  A    between atoms: C16_16  and  C17_17 
ROOT
ATOM      1  C7  <0> d  11       3.105   2.573 -18.135  0.00  0.00     0.271 A 
ATOM      2  C8  <0> d  11       2.276   1.668 -18.828  0.00  0.00     0.044 A 
ATOM      3  C9  <0> d  11       2.265   0.493 -18.138  0.00  0.00     0.070 A 
ATOM      4  H1  <0> d  11       3.255  -0.038 -16.366  0.00  0.00     0.187 HD
ATOM      5  N1  <0> d  11       3.587   1.943 -17.046  0.00  0.00    -0.252 N 
ATOM      6  N2  <0> d  11       3.075   0.640 -17.035  0.00  0.00    -0.294 N 
ATOM      7  O1  <0> d  11       3.342   3.722 -18.463  0.00  0.00    -0.266 OA
ENDROOT
BRANCH   5   8
ATOM      8  C4  <0> d  11       4.492   2.521 -16.048  0.00  0.00     0.115 C 
ATOM      9  C3  <0> d  11       5.721   3.105 -16.750  0.00  0.00     0.055 C 
ATOM     10  C2  <0> d  11       6.633   3.761 -15.710  0.00  0.00     0.236 C 
ATOM     11  N3  <0> d  11       5.886   4.842 -15.031  0.00  0.00    -0.075 N 
ATOM     12  C1  <0> d  11       6.779   5.565 -14.102  0.00  0.00     0.269 C 
ATOM     13  C6  <0> d  11       4.738   4.278 -14.290  0.00  0.00     0.236 C 
ATOM     14  H26 <0> d  11       5.535   5.499 -15.738  0.00  0.00     0.279 HD
ATOM     15  C5  <0> d  11       3.770   3.637 -15.288  0.00  0.00     0.055 C 
ENDBRANCH   5   8
BRANCH   3  16
ATOM     16  C10 <0> d  11       1.518  -0.726 -18.510  0.00  0.00    -0.007 A 
ATOM     17  C15 <0> d  11       2.179  -1.796 -19.116  0.00  0.00     0.014 A 
ATOM     18  C14 <0> d  11       1.475  -2.932 -19.461  0.00  0.00     0.001 A 
ATOM     19  C13 <0> d  11       0.117  -3.010 -19.209  0.00  0.00     0.000 A 
ATOM     20  C12 <0> d  11      -0.545  -1.953 -18.609  0.00  0.00     0.001 A 
ATOM     21  C11 <0> d  11       0.149  -0.815 -18.253  0.00  0.00     0.014 A 
ENDBRANCH   3  16
BRANCH   2  22
ATOM     22  C16 <0> d  11       1.528   1.951 -20.106  0.00  0.00     0.085 C 
BRANCH  22  23
ATOM     23  C17 <0> d  11       2.031   1.038 -21.195  0.00  0.00    -0.054 A 
ATOM     24  C22 <0> d  11       3.390   0.902 -21.411  0.00  0.00     0.007 A 
ATOM     25  C21 <0> d  11       3.851   0.064 -22.408  0.00  0.00     0.001 A 
ATOM     26  C20 <0> d  11       2.954  -0.639 -23.189  0.00  0.00     0.000 A 
ATOM     27  C19 <0> d  11       1.595  -0.507 -22.971  0.00  0.00     0.001 A 
ATOM     28  C18 <0> d  11       1.133   0.334 -21.976  0.00  0.00     0.007 A 
ENDBRANCH  22  23
ENDBRANCH   2  22
TORSDOF 4
ENDMDL
