REMARK INTER + INTRA:          -5.409
REMARK INTER:                  -5.307
REMARK INTRA:                  -0.102
REMARK UNBOUND:                -0.112
REMARK  3 active torsions:
REMARK  status: ('A' for Active; 'I' for Inactive)
REMARK    1  A    between atoms: C3_3  and  S1_15 
REMARK    2  A    between atoms: C6_6  and  C7_7 
REMARK    3  A    between atoms: S1_15  and  N1_10 
ROOT
ATOM      1  C1  <0> d  11       0.634   0.312 -19.312  0.00  0.00     0.020 A 
ATOM      2  C2  <0> d  11       1.484   1.393 -19.190  0.00  0.00     0.026 A 
ATOM      3  C3  <0> d  11       2.517   1.363 -18.271  0.00  0.00     0.079 A 
ATOM      4  C4  <0> d  11       2.705   0.253 -17.466  0.00  0.00     0.026 A 
ATOM      5  C5  <0> d  11       1.860  -0.832 -17.574  0.00  0.00     0.020 A 
ATOM      6  C6  <0> d  11       0.814  -0.808 -18.499  0.00  0.00     0.040 A 
ENDROOT
BRANCH   3   7
ATOM      7  S1  <0> d  11       3.602   2.744 -18.127  0.00  0.00     0.256 S 
ATOM      8  O2  <0> d  11       4.225   2.639 -16.854  0.00  0.00    -0.201 OA
ATOM      9  O3  <0> d  11       4.346   2.806 -19.336  0.00  0.00    -0.201 OA
BRANCH   7  10
ATOM     10  N1  <0> d  11       2.659   4.104 -18.081  0.00  0.00    -0.324 N 
ATOM     11  H5  <0> d  11       2.370   4.464 -17.228  0.00  0.00     0.169 HD
ATOM     12  H6  <0> d  11       2.396   4.540 -18.906  0.00  0.00     0.169 HD
ENDBRANCH   7  10
ENDBRANCH   3   7
BRANCH   6  13
ATOM     13  C7  <0> d  11      -0.095  -1.967 -18.620  0.00  0.00     0.209 C 
ATOM     14  O1  <0> d  11      -1.159  -1.967 -18.033  0.00  0.00    -0.644 OA
ATOM     15  O4  <0> d  11       0.253  -3.020 -19.384  0.00  0.00    -0.644 OA
ENDBRANCH   6  13
TORSDOF 3
ENDMDL
