REMARK INTER + INTRA:          -6.591
REMARK INTER:                  -5.965
REMARK INTRA:                  -0.627
REMARK UNBOUND:                -0.489
REMARK  3 active torsions:
REMARK  status: ('A' for Active; 'I' for Inactive)
REMARK    1  A    between atoms: C4_4  and  C7_7 
REMARK    2  A    between atoms: C14_14  and  C16_16 
REMARK    3  A    between atoms: C16_16  and  C17_17 
ROOT
ATOM      1  C7  <0> d  11       2.474  -1.043 -18.732  0.00  0.00     0.090 A 
ATOM      2  C8  <0> d  11       1.959  -2.270 -18.450  0.00  0.00     0.093 A 
ATOM      3  C9  <0> d  11       1.508  -3.096 -19.507  0.00  0.00     0.187 A 
ATOM      4  C10 <0> d  11       1.634  -2.569 -20.880  0.00  0.00     0.048 A 
ATOM      5  C11 <0> d  11       1.219  -3.313 -21.982  0.00  0.00     0.018 A 
ATOM      6  C12 <0> d  11       1.353  -2.786 -23.248  0.00  0.00     0.002 A 
ATOM      7  C13 <0> d  11       1.896  -1.522 -23.426  0.00  0.00     0.010 A 
ATOM      8  C14 <0> d  11       2.311  -0.777 -22.343  0.00  0.00    -0.013 A 
ATOM      9  C15 <0> d  11       2.184  -1.290 -21.058  0.00  0.00     0.097 A 
ATOM     10  O1  <0> d  11       1.036  -4.200 -19.291  0.00  0.00    -0.287 OA
ATOM     11  O2  <0> d  11       2.582  -0.576 -19.985  0.00  0.00    -0.308 OA
ENDROOT
BRANCH   1  12
ATOM     12  C4  <0> d  11       2.935  -0.193 -17.616  0.00  0.00    -0.002 A 
ATOM     13  C3  <0> d  11       3.025  -0.719 -16.325  0.00  0.00     0.014 A 
ATOM     14  C2  <0> d  11       3.458   0.080 -15.287  0.00  0.00     0.001 A 
ATOM     15  C1  <0> d  11       3.800   1.401 -15.522  0.00  0.00     0.000 A 
ATOM     16  C6  <0> d  11       3.713   1.928 -16.798  0.00  0.00     0.001 A 
ATOM     17  C5  <0> d  11       3.288   1.138 -17.847  0.00  0.00     0.014 A 
ENDBRANCH   1  12
BRANCH   8  18
ATOM     18  C16 <0> d  11       2.901   0.595 -22.553  0.00  0.00     0.154 C 
BRANCH  18  19
ATOM     19  C17 <0> d  11       1.801   1.624 -22.528  0.00  0.00     0.177 C 
ATOM     20  O3  <0> d  11       1.547   2.214 -21.504  0.00  0.00    -0.648 OA
ATOM     21  O4  <0> d  11       1.102   1.886 -23.644  0.00  0.00    -0.648 OA
ENDBRANCH  18  19
ENDBRANCH   8  18
TORSDOF 3
ENDMDL
