REMARK INTER + INTRA:          -4.663
REMARK INTER:                  -4.561
REMARK INTRA:                  -0.102
REMARK UNBOUND:                -0.112
REMARK  3 active torsions:
REMARK  status: ('A' for Active; 'I' for Inactive)
REMARK    1  A    between atoms: C3_3  and  S1_15 
REMARK    2  A    between atoms: C6_6  and  C7_7 
REMARK    3  A    between atoms: S1_15  and  N1_10 
ROOT
ATOM      1  C1  <0> d  11       1.510  -1.193 -20.499  0.00  0.00     0.020 A 
ATOM      2  C2  <0> d  11       1.832  -0.585 -21.695  0.00  0.00     0.026 A 
ATOM      3  C3  <0> d  11       1.624   0.772 -21.863  0.00  0.00     0.079 A 
ATOM      4  C4  <0> d  11       1.090   1.529 -20.836  0.00  0.00     0.026 A 
ATOM      5  C5  <0> d  11       0.758   0.934 -19.636  0.00  0.00     0.020 A 
ATOM      6  C6  <0> d  11       0.964  -0.435 -19.460  0.00  0.00     0.040 A 
ENDROOT
BRANCH   3   7
ATOM      7  S1  <0> d  11       2.045   1.540 -23.392  0.00  0.00     0.256 S 
ATOM      8  O2  <0> d  11       1.601   2.888 -23.304  0.00  0.00    -0.201 OA
ATOM      9  O3  <0> d  11       3.399   1.200 -23.660  0.00  0.00    -0.201 OA
BRANCH   7  10
ATOM     10  N1  <0> d  11       1.133   0.818 -24.570  0.00  0.00    -0.324 N 
ATOM     11  H5  <0> d  11       0.765  -0.068 -24.423  0.00  0.00     0.169 HD
ATOM     12  H6  <0> d  11       0.967   1.279 -25.406  0.00  0.00     0.169 HD
ENDBRANCH   7  10
ENDBRANCH   3   7
BRANCH   6  13
ATOM     13  C7  <0> d  11       0.612  -1.080 -18.178  0.00  0.00     0.209 C 
ATOM     14  O1  <0> d  11       1.416  -1.100 -17.268  0.00  0.00    -0.644 OA
ATOM     15  O4  <0> d  11      -0.603  -1.641 -18.017  0.00  0.00    -0.644 OA
ENDBRANCH   6  13
TORSDOF 3
ENDMDL
