REMARK INTER + INTRA:          -6.575
REMARK INTER:                  -6.024
REMARK INTRA:                  -0.552
REMARK UNBOUND:                -0.625
REMARK  3 active torsions:
REMARK  status: ('A' for Active; 'I' for Inactive)
REMARK    1  A    between atoms: C4_4  and  C7_7 
REMARK    2  A    between atoms: C14_14  and  C16_16 
REMARK    3  A    between atoms: C16_16  and  C17_17 
ROOT
ATOM      1  C7  <0> d  11       2.725  -0.874 -17.725  0.00  0.00     0.090 A 
ATOM      2  C8  <0> d  11       2.628  -1.667 -16.624  0.00  0.00     0.093 A 
ATOM      3  C9  <0> d  11       3.021  -1.160 -15.363  0.00  0.00     0.187 A 
ATOM      4  C10 <0> d  11       3.514   0.231 -15.316  0.00  0.00     0.048 A 
ATOM      5  C11 <0> d  11       3.919   0.815 -14.118  0.00  0.00     0.018 A 
ATOM      6  C12 <0> d  11       4.374   2.116 -14.115  0.00  0.00     0.002 A 
ATOM      7  C13 <0> d  11       4.429   2.841 -15.297  0.00  0.00     0.010 A 
ATOM      8  C14 <0> d  11       4.030   2.274 -16.488  0.00  0.00    -0.013 A 
ATOM      9  C15 <0> d  11       3.568   0.963 -16.512  0.00  0.00     0.097 A 
ATOM     10  O1  <0> d  11       2.952  -1.843 -14.355  0.00  0.00    -0.287 OA
ATOM     11  O2  <0> d  11       3.174   0.389 -17.668  0.00  0.00    -0.308 OA
ENDROOT
BRANCH   1  12
ATOM     12  C4  <0> d  11       2.314  -1.422 -19.033  0.00  0.00    -0.002 A 
ATOM     13  C3  <0> d  11       1.564  -2.599 -19.097  0.00  0.00     0.014 A 
ATOM     14  C2  <0> d  11       1.184  -3.105 -20.322  0.00  0.00     0.001 A 
ATOM     15  C1  <0> d  11       1.543  -2.451 -21.487  0.00  0.00     0.000 A 
ATOM     16  C6  <0> d  11       2.287  -1.285 -21.432  0.00  0.00     0.001 A 
ATOM     17  C5  <0> d  11       2.669  -0.764 -20.213  0.00  0.00     0.014 A 
ENDBRANCH   1  12
BRANCH   8  18
ATOM     18  C16 <0> d  11       4.094   3.074 -17.764  0.00  0.00     0.154 C 
BRANCH  18  19
ATOM     19  C17 <0> d  11       2.741   3.674 -18.048  0.00  0.00     0.177 C 
ATOM     20  O3  <0> d  11       1.982   3.120 -18.806  0.00  0.00    -0.648 OA
ATOM     21  O4  <0> d  11       2.380   4.824 -17.459  0.00  0.00    -0.648 OA
ENDBRANCH  18  19
ENDBRANCH   8  18
TORSDOF 3
ENDMDL
