REMARK INTER + INTRA:          -7.917
REMARK INTER:                  -6.592
REMARK INTRA:                  -1.325
REMARK UNBOUND:                -1.792
REMARK  4 active torsions:
REMARK  status: ('A' for Active; 'I' for Inactive)
REMARK    1  A    between atoms: C4_4  and  N1_25 
REMARK    2  A    between atoms: C8_8  and  C16_16 
REMARK    3  A    between atoms: C9_9  and  C10_10 
REMARK    4  A    between atoms: C16_16  and  C17_17 
ROOT
ATOM      1  C7  <0> d  11       3.098   2.594 -18.107  0.00  0.00     0.271 A 
ATOM      2  C8  <0> d  11       2.273   1.691 -18.808  0.00  0.00     0.044 A 
ATOM      3  C9  <0> d  11       2.270   0.509 -18.130  0.00  0.00     0.070 A 
ATOM      4  H1  <0> d  11       3.267  -0.034 -16.366  0.00  0.00     0.187 HD
ATOM      5  N1  <0> d  11       3.586   1.956 -17.026  0.00  0.00    -0.252 N 
ATOM      6  N2  <0> d  11       3.082   0.650 -17.028  0.00  0.00    -0.294 N 
ATOM      7  O1  <0> d  11       3.327   3.748 -18.424  0.00  0.00    -0.266 OA
ENDROOT
BRANCH   5   8
ATOM      8  C4  <0> d  11       4.490   2.529 -16.024  0.00  0.00     0.115 C 
ATOM      9  C3  <0> d  11       5.713   3.129 -16.721  0.00  0.00     0.055 C 
ATOM     10  C2  <0> d  11       6.623   3.779 -15.676  0.00  0.00     0.236 C 
ATOM     11  N3  <0> d  11       5.871   4.846 -14.983  0.00  0.00    -0.075 N 
ATOM     12  C1  <0> d  11       6.761   5.565 -14.048  0.00  0.00     0.269 C 
ATOM     13  C6  <0> d  11       4.728   4.265 -14.246  0.00  0.00     0.236 C 
ATOM     14  H26 <0> d  11       5.515   5.510 -15.681  0.00  0.00     0.279 HD
ATOM     15  C5  <0> d  11       3.762   3.631 -15.249  0.00  0.00     0.055 C 
ENDBRANCH   5   8
BRANCH   3  16
ATOM     16  C10 <0> d  11       1.529  -0.711 -18.513  0.00  0.00    -0.007 A 
ATOM     17  C15 <0> d  11       2.190  -1.760 -19.154  0.00  0.00     0.014 A 
ATOM     18  C14 <0> d  11       1.492  -2.896 -19.509  0.00  0.00     0.001 A 
ATOM     19  C13 <0> d  11       0.140  -2.995 -19.232  0.00  0.00     0.000 A 
ATOM     20  C12 <0> d  11      -0.521  -1.959 -18.597  0.00  0.00     0.001 A 
ATOM     21  C11 <0> d  11       0.167  -0.820 -18.231  0.00  0.00     0.014 A 
ENDBRANCH   3  16
BRANCH   2  22
ATOM     22  C16 <0> d  11       1.521   1.983 -20.082  0.00  0.00     0.085 C 
BRANCH  22  23
ATOM     23  C17 <0> d  11       2.037   1.094 -21.184  0.00  0.00    -0.054 A 
ATOM     24  C22 <0> d  11       3.398   0.971 -21.392  0.00  0.00     0.007 A 
ATOM     25  C21 <0> d  11       3.871   0.155 -22.403  0.00  0.00     0.001 A 
ATOM     26  C20 <0> d  11       2.983  -0.537 -23.205  0.00  0.00     0.000 A 
ATOM     27  C19 <0> d  11       1.623  -0.417 -22.994  0.00  0.00     0.001 A 
ATOM     28  C18 <0> d  11       1.150   0.403 -21.987  0.00  0.00     0.007 A 
ENDBRANCH  22  23
ENDBRANCH   2  22
TORSDOF 4
ENDMDL
