REMARK INTER + INTRA:          -6.486
REMARK INTER:                  -5.861
REMARK INTRA:                  -0.625
REMARK UNBOUND:                -0.625
REMARK  3 active torsions:
REMARK  status: ('A' for Active; 'I' for Inactive)
REMARK    1  A    between atoms: C4_4  and  C7_7 
REMARK    2  A    between atoms: C14_14  and  C16_16 
REMARK    3  A    between atoms: C16_16  and  C17_17 
ROOT
ATOM      1  C7  <0> d  11       2.262  -1.216 -19.571  0.00  0.00     0.090 A 
ATOM      2  C8  <0> d  11       1.694  -2.442 -19.420  0.00  0.00     0.093 A 
ATOM      3  C9  <0> d  11       1.279  -3.164 -20.565  0.00  0.00     0.187 A 
ATOM      4  C10 <0> d  11       1.501  -2.533 -21.881  0.00  0.00     0.048 A 
ATOM      5  C11 <0> d  11       1.128  -3.171 -23.062  0.00  0.00     0.018 A 
ATOM      6  C12 <0> d  11       1.352  -2.548 -24.271  0.00  0.00     0.002 A 
ATOM      7  C13 <0> d  11       1.944  -1.295 -24.314  0.00  0.00     0.010 A 
ATOM      8  C14 <0> d  11       2.318  -0.654 -23.152  0.00  0.00    -0.013 A 
ATOM      9  C15 <0> d  11       2.101  -1.265 -21.922  0.00  0.00     0.097 A 
ATOM     10  O1  <0> d  11       0.762  -4.264 -20.468  0.00  0.00    -0.287 OA
ATOM     11  O2  <0> d  11       2.458  -0.654 -20.773  0.00  0.00    -0.308 OA
ENDROOT
BRANCH   1  12
ATOM     12  C4  <0> d  11       2.684  -0.476 -18.365  0.00  0.00    -0.002 A 
ATOM     13  C3  <0> d  11       2.676  -1.104 -17.117  0.00  0.00     0.014 A 
ATOM     14  C2  <0> d  11       3.072  -0.407 -15.995  0.00  0.00     0.001 A 
ATOM     15  C1  <0> d  11       3.477   0.911 -16.102  0.00  0.00     0.000 A 
ATOM     16  C6  <0> d  11       3.487   1.540 -17.335  0.00  0.00     0.001 A 
ATOM     17  C5  <0> d  11       3.100   0.854 -18.466  0.00  0.00     0.014 A 
ENDBRANCH   1  12
BRANCH   8  18
ATOM     18  C16 <0> d  11       2.962   0.707 -23.214  0.00  0.00     0.154 C 
BRANCH  18  19
ATOM     19  C17 <0> d  11       1.896   1.770 -23.145  0.00  0.00     0.177 C 
ATOM     20  O3  <0> d  11       1.633   2.294 -22.089  0.00  0.00    -0.648 OA
ATOM     21  O4  <0> d  11       1.240   2.137 -24.257  0.00  0.00    -0.648 OA
ENDBRANCH  18  19
ENDBRANCH   8  18
TORSDOF 3
ENDMDL
