REMARK INTER + INTRA:          -5.979
REMARK INTER:                  -5.463
REMARK INTRA:                  -0.516
REMARK UNBOUND:                 0.180
REMARK  2 active torsions:
REMARK  status: ('A' for Active; 'I' for Inactive)
REMARK    1  A    between atoms: C4_4  and  C6_6 
REMARK    2  A    between atoms: C6_6  and  N1_20 
ROOT
ATOM      1  C7  <0> d  11       1.841   0.859 -21.979  0.00  0.00     0.052 A 
ATOM      2  C8  <0> d  11       1.508   1.933 -22.789  0.00  0.00     0.031 A 
ATOM      3  C9  <0> d  11       1.784   1.892 -24.143  0.00  0.00     0.002 A 
ATOM      4  C10 <0> d  11       2.392   0.783 -24.700  0.00  0.00     0.002 A 
ATOM      5  C11 <0> d  11       2.731  -0.297 -23.900  0.00  0.00     0.021 A 
ATOM      6  C12 <0> d  11       2.457  -0.260 -22.547  0.00  0.00     0.032 A 
ATOM      7  C13 <0> d  11       1.667  -1.500 -20.222  0.00  0.00     0.032 A 
ATOM      8  C14 <0> d  11       1.137  -0.244 -19.912  0.00  0.00     0.052 A 
ATOM      9  C15 <0> d  11       0.188  -0.137 -18.908  0.00  0.00     0.031 A 
ATOM     10  C16 <0> d  11      -0.226  -1.266 -18.225  0.00  0.00     0.002 A 
ATOM     11  C17 <0> d  11       0.301  -2.506 -18.535  0.00  0.00     0.002 A 
ATOM     12  C18 <0> d  11       1.250  -2.624 -19.536  0.00  0.00     0.021 A 
ATOM     13  N1  <0> d  11       1.561   0.893 -20.609  0.00  0.00    -0.344 N 
ATOM     14  S1  <0> d  11       2.877  -1.620 -21.503  0.00  0.00    -0.086 SA
ENDROOT
BRANCH  13  15
ATOM     15  C6  <0> d  11       1.714   2.156 -19.883  0.00  0.00     0.136 C 
BRANCH  15  16
ATOM     16  C4  <0> d  11       2.838   2.019 -18.854  0.00  0.00     0.031 C 
ATOM     17  C3  <0> d  11       4.202   1.798 -19.557  0.00  0.00     0.035 C 
ATOM     18  C2  <0> d  11       5.193   2.353 -18.503  0.00  0.00     0.234 C 
ATOM     19  N2  <0> d  11       4.500   3.526 -17.933  0.00  0.00    -0.074 N 
ATOM     20  C1  <0> d  11       4.841   3.672 -16.493  0.00  0.00     0.269 C 
ATOM     21  C5  <0> d  11       3.048   3.347 -18.096  0.00  0.00     0.240 C 
ATOM     22  H21 <0> d  11       4.797   4.371 -18.434  0.00  0.00     0.279 HD
ENDBRANCH  15  16
ENDBRANCH  13  15
TORSDOF 2
ENDMDL
