REMARK INTER + INTRA:          -5.990
REMARK INTER:                  -5.480
REMARK INTRA:                  -0.510
REMARK UNBOUND:                -0.441
REMARK  2 active torsions:
REMARK  status: ('A' for Active; 'I' for Inactive)
REMARK    1  A    between atoms: C4_4  and  C6_6 
REMARK    2  A    between atoms: C6_6  and  N1_20 
ROOT
ATOM      1  C7  <0> d  11       1.844   0.844 -22.006  0.00  0.00     0.052 A 
ATOM      2  C8  <0> d  11       1.502   1.914 -22.816  0.00  0.00     0.031 A 
ATOM      3  C9  <0> d  11       1.780   1.874 -24.171  0.00  0.00     0.002 A 
ATOM      4  C10 <0> d  11       2.398   0.769 -24.726  0.00  0.00     0.002 A 
ATOM      5  C11 <0> d  11       2.746  -0.307 -23.925  0.00  0.00     0.021 A 
ATOM      6  C12 <0> d  11       2.471  -0.270 -22.572  0.00  0.00     0.032 A 
ATOM      7  C13 <0> d  11       1.691  -1.514 -20.245  0.00  0.00     0.032 A 
ATOM      8  C14 <0> d  11       1.150  -0.263 -19.938  0.00  0.00     0.052 A 
ATOM      9  C15 <0> d  11       0.199  -0.163 -18.934  0.00  0.00     0.031 A 
ATOM     10  C16 <0> d  11      -0.206  -1.294 -18.250  0.00  0.00     0.002 A 
ATOM     11  C17 <0> d  11       0.332  -2.530 -18.558  0.00  0.00     0.002 A 
ATOM     12  C18 <0> d  11       1.284  -2.642 -19.558  0.00  0.00     0.021 A 
ATOM     13  N1  <0> d  11       1.564   0.877 -20.636  0.00  0.00    -0.344 N 
ATOM     14  S1  <0> d  11       2.902  -1.625 -21.526  0.00  0.00    -0.086 SA
ENDROOT
BRANCH  13  15
ATOM     15  C6  <0> d  11       1.705   2.142 -19.911  0.00  0.00     0.136 C 
BRANCH  15  16
ATOM     16  C4  <0> d  11       2.816   2.011 -18.867  0.00  0.00     0.031 C 
ATOM     17  C3  <0> d  11       4.191   1.802 -19.554  0.00  0.00     0.035 C 
ATOM     18  C2  <0> d  11       5.163   2.361 -18.484  0.00  0.00     0.234 C 
ATOM     19  N2  <0> d  11       4.455   3.528 -17.921  0.00  0.00    -0.074 N 
ATOM     20  C1  <0> d  11       4.776   3.672 -16.477  0.00  0.00     0.269 C 
ATOM     21  C5  <0> d  11       3.007   3.338 -18.103  0.00  0.00     0.240 C 
ATOM     22  H21 <0> d  11       4.751   4.378 -18.416  0.00  0.00     0.279 HD
ENDBRANCH  15  16
ENDBRANCH  13  15
TORSDOF 2
ENDMDL
