REMARK INTER + INTRA:          -5.408
REMARK INTER:                  -4.750
REMARK INTRA:                  -0.659
REMARK UNBOUND:                 0.180
REMARK  2 active torsions:
REMARK  status: ('A' for Active; 'I' for Inactive)
REMARK    1  A    between atoms: C4_4  and  C6_6 
REMARK    2  A    between atoms: C6_6  and  N1_20 
ROOT
ATOM      1  C7  <0> d  11       3.701   1.326 -16.036  0.00  0.00     0.052 A 
ATOM      2  C8  <0> d  11       4.013   1.213 -14.691  0.00  0.00     0.031 A 
ATOM      3  C9  <0> d  11       4.378   2.334 -13.967  0.00  0.00     0.002 A 
ATOM      4  C10 <0> d  11       4.436   3.572 -14.577  0.00  0.00     0.002 A 
ATOM      5  C11 <0> d  11       4.128   3.698 -15.923  0.00  0.00     0.021 A 
ATOM      6  C12 <0> d  11       3.763   2.581 -16.649  0.00  0.00     0.032 A 
ATOM      7  C13 <0> d  11       2.232   1.373 -18.590  0.00  0.00     0.032 A 
ATOM      8  C14 <0> d  11       2.340   0.253 -17.761  0.00  0.00     0.052 A 
ATOM      9  C15 <0> d  11       1.457  -0.803 -17.929  0.00  0.00     0.031 A 
ATOM     10  C16 <0> d  11       0.482  -0.740 -18.909  0.00  0.00     0.002 A 
ATOM     11  C17 <0> d  11       0.380   0.371 -19.725  0.00  0.00     0.002 A 
ATOM     12  C18 <0> d  11       1.257   1.431 -19.566  0.00  0.00     0.021 A 
ATOM     13  N1  <0> d  11       3.328   0.197 -16.772  0.00  0.00    -0.344 N 
ATOM     14  S1  <0> d  11       3.365   2.709 -18.364  0.00  0.00    -0.086 SA
ENDROOT
BRANCH  13  15
ATOM     15  C6  <0> d  11       3.990  -1.082 -16.500  0.00  0.00     0.136 C 
BRANCH  15  16
ATOM     16  C4  <0> d  11       5.176  -1.254 -17.449  0.00  0.00     0.031 C 
ATOM     17  C3  <0> d  11       6.516  -1.036 -16.700  0.00  0.00     0.035 C 
ATOM     18  C2  <0> d  11       7.496  -1.876 -17.556  0.00  0.00     0.234 C 
ATOM     19  N2  <0> d  11       6.711  -3.064 -17.949  0.00  0.00    -0.074 N 
ATOM     20  C1  <0> d  11       7.113  -3.515 -19.308  0.00  0.00     0.269 C 
ATOM     21  C5  <0> d  11       5.281  -2.716 -17.931  0.00  0.00     0.240 C 
ATOM     22  H21 <0> d  11       6.886  -3.822 -17.280  0.00  0.00     0.279 HD
ENDBRANCH  15  16
ENDBRANCH  13  15
TORSDOF 2
ENDMDL
