REMARK INTER + INTRA:          -4.961
REMARK INTER:                  -4.859
REMARK INTRA:                  -0.103
REMARK UNBOUND:                -0.102
REMARK  3 active torsions:
REMARK  status: ('A' for Active; 'I' for Inactive)
REMARK    1  A    between atoms: C3_3  and  S1_15 
REMARK    2  A    between atoms: C6_6  and  C7_7 
REMARK    3  A    between atoms: S1_15  and  N1_10 
ROOT
ATOM      1  C1  <0> d  11       1.675   0.977 -19.319  0.00  0.00     0.020 A 
ATOM      2  C2  <0> d  11       2.219   2.230 -19.120  0.00  0.00     0.026 A 
ATOM      3  C3  <0> d  11       3.022   2.473 -18.021  0.00  0.00     0.079 A 
ATOM      4  C4  <0> d  11       3.283   1.464 -17.110  0.00  0.00     0.026 A 
ATOM      5  C5  <0> d  11       2.742   0.208 -17.292  0.00  0.00     0.020 A 
ATOM      6  C6  <0> d  11       1.930  -0.043 -18.400  0.00  0.00     0.040 A 
ENDROOT
BRANCH   3   7
ATOM      7  S1  <0> d  11       3.718   4.073 -17.779  0.00  0.00     0.256 S 
ATOM      8  O2  <0> d  11       4.825   4.172 -18.664  0.00  0.00    -0.201 OA
ATOM      9  O3  <0> d  11       2.636   4.995 -17.806  0.00  0.00    -0.201 OA
BRANCH   7  10
ATOM     10  N1  <0> d  11       4.334   4.112 -16.244  0.00  0.00    -0.324 N 
ATOM     11  H5  <0> d  11       4.368   4.950 -15.756  0.00  0.00     0.169 HD
ATOM     12  H6  <0> d  11       4.661   3.298 -15.831  0.00  0.00     0.169 HD
ENDBRANCH   7  10
ENDBRANCH   3   7
BRANCH   6  13
ATOM     13  C7  <0> d  11       1.346  -1.386 -18.602  0.00  0.00     0.209 C 
ATOM     14  O1  <0> d  11       0.145  -1.543 -18.529  0.00  0.00    -0.644 OA
ATOM     15  O4  <0> d  11       2.148  -2.434 -18.871  0.00  0.00    -0.644 OA
ENDBRANCH   6  13
TORSDOF 3
ENDMDL
