REMARK INTER + INTRA:          -7.381
REMARK INTER:                  -5.647
REMARK INTRA:                  -1.734
REMARK UNBOUND:                -1.792
REMARK  4 active torsions:
REMARK  status: ('A' for Active; 'I' for Inactive)
REMARK    1  A    between atoms: C4_4  and  N1_25 
REMARK    2  A    between atoms: C8_8  and  C16_16 
REMARK    3  A    between atoms: C9_9  and  C10_10 
REMARK    4  A    between atoms: C16_16  and  C17_17 
ROOT
ATOM      1  C7  <0> d  11       1.322  -2.302 -19.547  0.00  0.00     0.271 A 
ATOM      2  C8  <0> d  11       1.753  -1.218 -18.756  0.00  0.00     0.044 A 
ATOM      3  C9  <0> d  11       2.394  -0.332 -19.570  0.00  0.00     0.070 A 
ATOM      4  H1  <0> d  11       2.768  -0.423 -21.632  0.00  0.00     0.187 HD
ATOM      5  N1  <0> d  11       1.706  -2.069 -20.817  0.00  0.00    -0.252 N 
ATOM      6  N2  <0> d  11       2.381  -0.842 -20.848  0.00  0.00    -0.294 N 
ATOM      7  O1  <0> d  11       0.709  -3.278 -19.150  0.00  0.00    -0.266 OA
ENDROOT
BRANCH   5   8
ATOM      8  C4  <0> d  11       1.461  -2.946 -21.965  0.00  0.00     0.115 C 
ATOM      9  C3  <0> d  11       1.646  -2.155 -23.263  0.00  0.00     0.055 C 
ATOM     10  C2  <0> d  11       1.449  -3.090 -24.458  0.00  0.00     0.236 C 
ATOM     11  N3  <0> d  11       2.449  -4.175 -24.388  0.00  0.00    -0.075 N 
ATOM     12  C1  <0> d  11       2.354  -5.029 -25.591  0.00  0.00     0.269 C 
ATOM     13  C6  <0> d  11       2.232  -4.990 -23.173  0.00  0.00     0.236 C 
ATOM     14  H26 <0> d  11       3.388  -3.761 -24.348  0.00  0.00     0.279 HD
ATOM     15  C5  <0> d  11       2.453  -4.111 -21.941  0.00  0.00     0.055 C 
ENDBRANCH   5   8
BRANCH   3  16
ATOM     16  C10 <0> d  11       3.000   0.949 -19.152  0.00  0.00    -0.007 A 
ATOM     17  C15 <0> d  11       2.186   2.017 -18.768  0.00  0.00     0.014 A 
ATOM     18  C14 <0> d  11       2.758   3.210 -18.378  0.00  0.00     0.001 A 
ATOM     19  C13 <0> d  11       4.135   3.351 -18.370  0.00  0.00     0.000 A 
ATOM     20  C12 <0> d  11       4.947   2.297 -18.749  0.00  0.00     0.001 A 
ATOM     21  C11 <0> d  11       4.388   1.096 -19.135  0.00  0.00     0.014 A 
ENDBRANCH   3  16
BRANCH   2  22
ATOM     22  C16 <0> d  11       1.538  -1.062 -17.272  0.00  0.00     0.085 C 
BRANCH  22  23
ATOM     23  C17 <0> d  11       2.873  -1.043 -16.572  0.00  0.00    -0.054 A 
ATOM     24  C22 <0> d  11       3.200   0.006 -15.735  0.00  0.00     0.007 A 
ATOM     25  C21 <0> d  11       4.424   0.024 -15.092  0.00  0.00     0.001 A 
ATOM     26  C20 <0> d  11       5.321  -1.010 -15.288  0.00  0.00     0.000 A 
ATOM     27  C19 <0> d  11       4.993  -2.061 -16.123  0.00  0.00     0.001 A 
ATOM     28  C18 <0> d  11       3.771  -2.075 -16.769  0.00  0.00     0.007 A 
ENDBRANCH  22  23
ENDBRANCH   2  22
TORSDOF 4
ENDMDL
