REMARK INTER + INTRA:          -5.699
REMARK INTER:                  -5.239
REMARK INTRA:                  -0.461
REMARK UNBOUND:                -0.441
REMARK  2 active torsions:
REMARK  status: ('A' for Active; 'I' for Inactive)
REMARK    1  A    between atoms: C4_4  and  C6_6 
REMARK    2  A    between atoms: C6_6  and  N1_20 
ROOT
ATOM      1  C7  <0> d  11       3.046   2.029 -19.464  0.00  0.00     0.052 A 
ATOM      2  C8  <0> d  11       2.598   2.895 -18.480  0.00  0.00     0.031 A 
ATOM      3  C9  <0> d  11       3.505   3.527 -17.648  0.00  0.00     0.002 A 
ATOM      4  C10 <0> d  11       4.861   3.301 -17.790  0.00  0.00     0.002 A 
ATOM      5  C11 <0> d  11       5.321   2.436 -18.771  0.00  0.00     0.021 A 
ATOM      6  C12 <0> d  11       4.419   1.803 -19.603  0.00  0.00     0.032 A 
ATOM      7  C13 <0> d  11       3.703   0.839 -22.078  0.00  0.00     0.032 A 
ATOM      8  C14 <0> d  11       2.410   1.173 -21.665  0.00  0.00     0.052 A 
ATOM      9  C15 <0> d  11       1.404   1.288 -22.611  0.00  0.00     0.031 A 
ATOM     10  C16 <0> d  11       1.684   1.073 -23.949  0.00  0.00     0.002 A 
ATOM     11  C17 <0> d  11       2.965   0.743 -24.353  0.00  0.00     0.002 A 
ATOM     12  C18 <0> d  11       3.978   0.625 -23.415  0.00  0.00     0.021 A 
ATOM     13  N1  <0> d  11       2.135   1.390 -20.310  0.00  0.00    -0.344 N 
ATOM     14  S1  <0> d  11       4.974   0.695 -20.861  0.00  0.00    -0.086 SA
ENDROOT
BRANCH  13  15
ATOM     15  C6  <0> d  11       0.854   0.935 -19.764  0.00  0.00     0.136 C 
BRANCH  15  16
ATOM     16  C4  <0> d  11       1.042  -0.423 -19.086  0.00  0.00     0.031 C 
ATOM     17  C3  <0> d  11      -0.256  -0.854 -18.353  0.00  0.00     0.035 C 
ATOM     18  C2  <0> d  11      -0.118  -2.397 -18.353  0.00  0.00     0.234 C 
ATOM     19  N2  <0> d  11       0.481  -2.711 -19.665  0.00  0.00    -0.074 N 
ATOM     20  C1  <0> d  11       1.385  -3.885 -19.547  0.00  0.00     0.269 C 
ATOM     21  C5  <0> d  11       1.232  -1.537 -20.137  0.00  0.00     0.240 C 
ATOM     22  H21 <0> d  11      -0.265  -2.928 -20.336  0.00  0.00     0.279 HD
ENDBRANCH  15  16
ENDBRANCH  13  15
TORSDOF 2
ENDMDL
