REMARK INTER + INTRA:          -6.372
REMARK INTER:                  -5.773
REMARK INTRA:                  -0.600
REMARK UNBOUND:                -0.489
REMARK  3 active torsions:
REMARK  status: ('A' for Active; 'I' for Inactive)
REMARK    1  A    between atoms: C4_4  and  C7_7 
REMARK    2  A    between atoms: C14_14  and  C16_16 
REMARK    3  A    between atoms: C16_16  and  C17_17 
ROOT
ATOM      1  C7  <0> d  11       3.502   0.342 -16.663  0.00  0.00     0.090 A 
ATOM      2  C8  <0> d  11       4.274  -0.739 -16.367  0.00  0.00     0.093 A 
ATOM      3  C9  <0> d  11       4.036  -1.966 -17.030  0.00  0.00     0.187 A 
ATOM      4  C10 <0> d  11       2.950  -1.999 -18.029  0.00  0.00     0.048 A 
ATOM      5  C11 <0> d  11       2.647  -3.163 -18.733  0.00  0.00     0.018 A 
ATOM      6  C12 <0> d  11       1.625  -3.152 -19.657  0.00  0.00     0.002 A 
ATOM      7  C13 <0> d  11       0.901  -1.992 -19.886  0.00  0.00     0.010 A 
ATOM      8  C14 <0> d  11       1.192  -0.834 -19.197  0.00  0.00    -0.013 A 
ATOM      9  C15 <0> d  11       2.219  -0.823 -18.260  0.00  0.00     0.097 A 
ATOM     10  O1  <0> d  11       4.705  -2.957 -16.787  0.00  0.00    -0.287 OA
ATOM     11  O2  <0> d  11       2.518   0.299 -17.574  0.00  0.00    -0.308 OA
ENDROOT
BRANCH   1  12
ATOM     12  C4  <0> d  11       3.761   1.613 -15.958  0.00  0.00    -0.002 A 
ATOM     13  C3  <0> d  11       3.609   2.830 -16.626  0.00  0.00     0.014 A 
ATOM     14  C2  <0> d  11       3.852   4.013 -15.962  0.00  0.00     0.001 A 
ATOM     15  C1  <0> d  11       4.248   3.998 -14.635  0.00  0.00     0.000 A 
ATOM     16  C6  <0> d  11       4.401   2.796 -13.967  0.00  0.00     0.001 A 
ATOM     17  C5  <0> d  11       4.155   1.604 -14.618  0.00  0.00     0.014 A 
ENDBRANCH   1  12
BRANCH   8  18
ATOM     18  C16 <0> d  11       0.397   0.420 -19.459  0.00  0.00     0.154 C 
BRANCH  18  19
ATOM     19  C17 <0> d  11       1.041   1.200 -20.575  0.00  0.00     0.177 C 
ATOM     20  O3  <0> d  11       1.734   2.157 -20.322  0.00  0.00    -0.648 OA
ATOM     21  O4  <0> d  11       0.844   0.832 -21.851  0.00  0.00    -0.648 OA
ENDBRANCH  18  19
ENDBRANCH   8  18
TORSDOF 3
ENDMDL
