REMARK INTER + INTRA:          -7.475
REMARK INTER:                  -5.765
REMARK INTRA:                  -1.710
REMARK UNBOUND:                -1.792
REMARK  4 active torsions:
REMARK  status: ('A' for Active; 'I' for Inactive)
REMARK    1  A    between atoms: C4_4  and  N1_25 
REMARK    2  A    between atoms: C8_8  and  C16_16 
REMARK    3  A    between atoms: C9_9  and  C10_10 
REMARK    4  A    between atoms: C16_16  and  C17_17 
ROOT
ATOM      1  C7  <0> d  11       3.005   0.355 -16.877  0.00  0.00     0.271 A 
ATOM      2  C8  <0> d  11       2.325  -0.111 -18.020  0.00  0.00     0.044 A 
ATOM      3  C9  <0> d  11       2.760   0.611 -19.092  0.00  0.00     0.070 A 
ATOM      4  H1  <0> d  11       4.163   2.167 -19.188  0.00  0.00     0.187 HD
ATOM      5  N1  <0> d  11       3.833   1.347 -17.260  0.00  0.00    -0.252 N 
ATOM      6  N2  <0> d  11       3.689   1.522 -18.643  0.00  0.00    -0.294 N 
ATOM      7  O1  <0> d  11       2.868  -0.066 -15.741  0.00  0.00    -0.266 OA
ENDROOT
BRANCH   5   8
ATOM      8  C4  <0> d  11       4.726   2.110 -16.384  0.00  0.00     0.115 C 
ATOM      9  C3  <0> d  11       5.786   2.821 -17.229  0.00  0.00     0.055 C 
ATOM     10  C2  <0> d  11       6.678   3.664 -16.315  0.00  0.00     0.236 C 
ATOM     11  N3  <0> d  11       5.843   4.664 -15.618  0.00  0.00    -0.075 N 
ATOM     12  C1  <0> d  11       6.696   5.565 -14.815  0.00  0.00     0.269 C 
ATOM     13  C6  <0> d  11       4.862   3.986 -14.743  0.00  0.00     0.236 C 
ATOM     14  H26 <0> d  11       5.336   5.221 -16.317  0.00  0.00     0.279 HD
ATOM     15  C5  <0> d  11       3.916   3.153 -15.611  0.00  0.00     0.055 C 
ENDBRANCH   5   8
BRANCH   3  16
ATOM     16  C10 <0> d  11       2.311   0.446 -20.490  0.00  0.00    -0.007 A 
ATOM     17  C15 <0> d  11       3.062  -0.323 -21.381  0.00  0.00     0.014 A 
ATOM     18  C14 <0> d  11       2.637  -0.473 -22.685  0.00  0.00     0.001 A 
ATOM     19  C13 <0> d  11       1.469   0.137 -23.110  0.00  0.00     0.000 A 
ATOM     20  C12 <0> d  11       0.720   0.899 -22.231  0.00  0.00     0.001 A 
ATOM     21  C11 <0> d  11       1.131   1.052 -20.923  0.00  0.00     0.014 A 
ENDBRANCH   3  16
BRANCH   2  22
ATOM     22  C16 <0> d  11       1.300  -1.216 -18.053  0.00  0.00     0.085 C 
BRANCH  22  23
ATOM     23  C17 <0> d  11       1.845  -2.381 -18.839  0.00  0.00    -0.054 A 
ATOM     24  C22 <0> d  11       1.091  -2.947 -19.849  0.00  0.00     0.007 A 
ATOM     25  C21 <0> d  11       1.591  -4.015 -20.570  0.00  0.00     0.001 A 
ATOM     26  C20 <0> d  11       2.847  -4.517 -20.280  0.00  0.00     0.000 A 
ATOM     27  C19 <0> d  11       3.602  -3.948 -19.273  0.00  0.00     0.001 A 
ATOM     28  C18 <0> d  11       3.100  -2.883 -18.549  0.00  0.00     0.007 A 
ENDBRANCH  22  23
ENDBRANCH   2  22
TORSDOF 4
ENDMDL
