REMARK INTER + INTRA:          -5.715
REMARK INTER:                  -5.102
REMARK INTRA:                  -0.613
REMARK UNBOUND:                 0.180
REMARK  2 active torsions:
REMARK  status: ('A' for Active; 'I' for Inactive)
REMARK    1  A    between atoms: C4_4  and  C6_6 
REMARK    2  A    between atoms: C6_6  and  N1_20 
ROOT
ATOM      1  C7  <0> d  11       2.195  -1.101 -19.593  0.00  0.00     0.052 A 
ATOM      2  C8  <0> d  11       1.092  -1.939 -19.623  0.00  0.00     0.031 A 
ATOM      3  C9  <0> d  11       1.236  -3.284 -19.329  0.00  0.00     0.002 A 
ATOM      4  C10 <0> d  11       2.475  -3.800 -19.004  0.00  0.00     0.002 A 
ATOM      5  C11 <0> d  11       3.586  -2.972 -18.972  0.00  0.00     0.021 A 
ATOM      6  C12 <0> d  11       3.447  -1.629 -19.265  0.00  0.00     0.032 A 
ATOM      7  C13 <0> d  11       4.108   1.005 -18.827  0.00  0.00     0.032 A 
ATOM      8  C14 <0> d  11       2.782   1.241 -19.202  0.00  0.00     0.052 A 
ATOM      9  C15 <0> d  11       2.195   2.457 -18.891  0.00  0.00     0.031 A 
ATOM     10  C16 <0> d  11       2.919   3.422 -18.214  0.00  0.00     0.002 A 
ATOM     11  C17 <0> d  11       4.230   3.184 -17.844  0.00  0.00     0.002 A 
ATOM     12  C18 <0> d  11       4.827   1.972 -18.151  0.00  0.00     0.021 A 
ATOM     13  N1  <0> d  11       2.056   0.260 -19.886  0.00  0.00    -0.344 N 
ATOM     14  S1  <0> d  11       4.843  -0.549 -19.232  0.00  0.00    -0.086 SA
ENDROOT
BRANCH  13  15
ATOM     15  C6  <0> d  11       1.122   0.670 -20.938  0.00  0.00     0.136 C 
BRANCH  15  16
ATOM     16  C4  <0> d  11       1.827   0.617 -22.294  0.00  0.00     0.031 C 
ATOM     17  C3  <0> d  11       1.414  -0.655 -23.079  0.00  0.00     0.035 C 
ATOM     18  C2  <0> d  11       1.636  -0.205 -24.545  0.00  0.00     0.234 C 
ATOM     19  N2  <0> d  11       1.206   1.208 -24.563  0.00  0.00    -0.074 N 
ATOM     20  C1  <0> d  11       2.038   1.983 -25.520  0.00  0.00     0.269 C 
ATOM     21  C5  <0> d  11       1.341   1.763 -23.206  0.00  0.00     0.240 C 
ATOM     22  H21 <0> d  11       0.224   1.259 -24.855  0.00  0.00     0.279 HD
ENDBRANCH  15  16
ENDBRANCH  13  15
TORSDOF 2
ENDMDL
