MODEL 1
REMARK VINA RESULT:    -5.515      0.000      0.000
REMARK INTER + INTRA:          -5.979
REMARK INTER:                  -5.463
REMARK INTRA:                  -0.516
REMARK UNBOUND:                 0.180
REMARK  2 active torsions:
REMARK  status: ('A' for Active; 'I' for Inactive)
REMARK    1  A    between atoms: C4_4  and  C6_6 
REMARK    2  A    between atoms: C6_6  and  N1_20 
ROOT
ATOM      1  C7  <0> d  11       1.841   0.859 -21.979  0.00  0.00     0.052 A 
ATOM      2  C8  <0> d  11       1.508   1.933 -22.789  0.00  0.00     0.031 A 
ATOM      3  C9  <0> d  11       1.784   1.892 -24.143  0.00  0.00     0.002 A 
ATOM      4  C10 <0> d  11       2.392   0.783 -24.700  0.00  0.00     0.002 A 
ATOM      5  C11 <0> d  11       2.731  -0.297 -23.900  0.00  0.00     0.021 A 
ATOM      6  C12 <0> d  11       2.457  -0.260 -22.547  0.00  0.00     0.032 A 
ATOM      7  C13 <0> d  11       1.667  -1.500 -20.222  0.00  0.00     0.032 A 
ATOM      8  C14 <0> d  11       1.137  -0.244 -19.912  0.00  0.00     0.052 A 
ATOM      9  C15 <0> d  11       0.188  -0.137 -18.908  0.00  0.00     0.031 A 
ATOM     10  C16 <0> d  11      -0.226  -1.266 -18.225  0.00  0.00     0.002 A 
ATOM     11  C17 <0> d  11       0.301  -2.506 -18.535  0.00  0.00     0.002 A 
ATOM     12  C18 <0> d  11       1.250  -2.624 -19.536  0.00  0.00     0.021 A 
ATOM     13  N1  <0> d  11       1.561   0.893 -20.609  0.00  0.00    -0.344 N 
ATOM     14  S1  <0> d  11       2.877  -1.620 -21.503  0.00  0.00    -0.086 SA
ENDROOT
BRANCH  13  15
ATOM     15  C6  <0> d  11       1.714   2.156 -19.883  0.00  0.00     0.136 C 
BRANCH  15  16
ATOM     16  C4  <0> d  11       2.838   2.019 -18.854  0.00  0.00     0.031 C 
ATOM     17  C3  <0> d  11       4.202   1.798 -19.557  0.00  0.00     0.035 C 
ATOM     18  C2  <0> d  11       5.193   2.353 -18.503  0.00  0.00     0.234 C 
ATOM     19  N2  <0> d  11       4.500   3.526 -17.933  0.00  0.00    -0.074 N 
ATOM     20  C1  <0> d  11       4.841   3.672 -16.493  0.00  0.00     0.269 C 
ATOM     21  C5  <0> d  11       3.048   3.347 -18.096  0.00  0.00     0.240 C 
ATOM     22  H21 <0> d  11       4.797   4.371 -18.434  0.00  0.00     0.279 HD
ENDBRANCH  15  16
ENDBRANCH  13  15
TORSDOF 2
ENDMDL
MODEL 2
REMARK VINA RESULT:    -5.278      1.657      5.461
REMARK INTER + INTRA:          -5.715
REMARK INTER:                  -5.102
REMARK INTRA:                  -0.613
REMARK UNBOUND:                 0.180
REMARK  2 active torsions:
REMARK  status: ('A' for Active; 'I' for Inactive)
REMARK    1  A    between atoms: C4_4  and  C6_6 
REMARK    2  A    between atoms: C6_6  and  N1_20 
ROOT
ATOM      1  C7  <0> d  11       2.195  -1.101 -19.593  0.00  0.00     0.052 A 
ATOM      2  C8  <0> d  11       1.092  -1.939 -19.623  0.00  0.00     0.031 A 
ATOM      3  C9  <0> d  11       1.236  -3.284 -19.329  0.00  0.00     0.002 A 
ATOM      4  C10 <0> d  11       2.475  -3.800 -19.004  0.00  0.00     0.002 A 
ATOM      5  C11 <0> d  11       3.586  -2.972 -18.972  0.00  0.00     0.021 A 
ATOM      6  C12 <0> d  11       3.447  -1.629 -19.265  0.00  0.00     0.032 A 
ATOM      7  C13 <0> d  11       4.108   1.005 -18.827  0.00  0.00     0.032 A 
ATOM      8  C14 <0> d  11       2.782   1.241 -19.202  0.00  0.00     0.052 A 
ATOM      9  C15 <0> d  11       2.195   2.457 -18.891  0.00  0.00     0.031 A 
ATOM     10  C16 <0> d  11       2.919   3.422 -18.214  0.00  0.00     0.002 A 
ATOM     11  C17 <0> d  11       4.230   3.184 -17.844  0.00  0.00     0.002 A 
ATOM     12  C18 <0> d  11       4.827   1.972 -18.151  0.00  0.00     0.021 A 
ATOM     13  N1  <0> d  11       2.056   0.260 -19.886  0.00  0.00    -0.344 N 
ATOM     14  S1  <0> d  11       4.843  -0.549 -19.232  0.00  0.00    -0.086 SA
ENDROOT
BRANCH  13  15
ATOM     15  C6  <0> d  11       1.122   0.670 -20.938  0.00  0.00     0.136 C 
BRANCH  15  16
ATOM     16  C4  <0> d  11       1.827   0.617 -22.294  0.00  0.00     0.031 C 
ATOM     17  C3  <0> d  11       1.414  -0.655 -23.079  0.00  0.00     0.035 C 
ATOM     18  C2  <0> d  11       1.636  -0.205 -24.545  0.00  0.00     0.234 C 
ATOM     19  N2  <0> d  11       1.206   1.208 -24.563  0.00  0.00    -0.074 N 
ATOM     20  C1  <0> d  11       2.038   1.983 -25.520  0.00  0.00     0.269 C 
ATOM     21  C5  <0> d  11       1.341   1.763 -23.206  0.00  0.00     0.240 C 
ATOM     22  H21 <0> d  11       0.224   1.259 -24.855  0.00  0.00     0.279 HD
ENDBRANCH  15  16
ENDBRANCH  13  15
TORSDOF 2
ENDMDL
MODEL 3
REMARK VINA RESULT:    -5.268      1.402      5.456
REMARK INTER + INTRA:          -5.704
REMARK INTER:                  -5.249
REMARK INTRA:                  -0.455
REMARK UNBOUND:                 0.180
REMARK  2 active torsions:
REMARK  status: ('A' for Active; 'I' for Inactive)
REMARK    1  A    between atoms: C4_4  and  C6_6 
REMARK    2  A    between atoms: C6_6  and  N1_20 
ROOT
ATOM      1  C7  <0> d  11       3.032   2.035 -19.454  0.00  0.00     0.052 A 
ATOM      2  C8  <0> d  11       2.599   2.901 -18.463  0.00  0.00     0.031 A 
ATOM      3  C9  <0> d  11       3.517   3.524 -17.637  0.00  0.00     0.002 A 
ATOM      4  C10 <0> d  11       4.870   3.291 -17.794  0.00  0.00     0.002 A 
ATOM      5  C11 <0> d  11       5.316   2.427 -18.782  0.00  0.00     0.021 A 
ATOM      6  C12 <0> d  11       4.402   1.802 -19.607  0.00  0.00     0.032 A 
ATOM      7  C13 <0> d  11       3.656   0.850 -22.079  0.00  0.00     0.032 A 
ATOM      8  C14 <0> d  11       2.369   1.190 -21.652  0.00  0.00     0.052 A 
ATOM      9  C15 <0> d  11       1.354   1.314 -22.587  0.00  0.00     0.031 A 
ATOM     10  C16 <0> d  11       1.620   1.102 -23.928  0.00  0.00     0.002 A 
ATOM     11  C17 <0> d  11       2.895   0.766 -24.346  0.00  0.00     0.002 A 
ATOM     12  C18 <0> d  11       3.916   0.640 -23.419  0.00  0.00     0.021 A 
ATOM     13  N1  <0> d  11       2.109   1.404 -20.293  0.00  0.00    -0.344 N 
ATOM     14  S1  <0> d  11       4.938   0.695 -20.874  0.00  0.00    -0.086 SA
ENDROOT
BRANCH  13  15
ATOM     15  C6  <0> d  11       0.830   0.954 -19.736  0.00  0.00     0.136 C 
BRANCH  15  16
ATOM     16  C4  <0> d  11       1.022  -0.401 -19.053  0.00  0.00     0.031 C 
ATOM     17  C3  <0> d  11      -0.278  -0.839 -18.328  0.00  0.00     0.035 C 
ATOM     18  C2  <0> d  11      -0.131  -2.381 -18.324  0.00  0.00     0.234 C 
ATOM     19  N2  <0> d  11       0.481  -2.693 -19.632  0.00  0.00    -0.074 N 
ATOM     20  C1  <0> d  11       1.391  -3.862 -19.504  0.00  0.00     0.269 C 
ATOM     21  C5  <0> d  11       1.228  -1.515 -20.100  0.00  0.00     0.240 C 
ATOM     22  H21 <0> d  11      -0.259  -2.918 -20.306  0.00  0.00     0.279 HD
ENDBRANCH  15  16
ENDBRANCH  13  15
TORSDOF 2
ENDMDL
MODEL 4
REMARK VINA RESULT:    -5.004      3.509      6.185
REMARK INTER + INTRA:          -5.408
REMARK INTER:                  -4.750
REMARK INTRA:                  -0.659
REMARK UNBOUND:                 0.180
REMARK  2 active torsions:
REMARK  status: ('A' for Active; 'I' for Inactive)
REMARK    1  A    between atoms: C4_4  and  C6_6 
REMARK    2  A    between atoms: C6_6  and  N1_20 
ROOT
ATOM      1  C7  <0> d  11       3.701   1.326 -16.036  0.00  0.00     0.052 A 
ATOM      2  C8  <0> d  11       4.013   1.213 -14.691  0.00  0.00     0.031 A 
ATOM      3  C9  <0> d  11       4.378   2.334 -13.967  0.00  0.00     0.002 A 
ATOM      4  C10 <0> d  11       4.436   3.572 -14.577  0.00  0.00     0.002 A 
ATOM      5  C11 <0> d  11       4.128   3.698 -15.923  0.00  0.00     0.021 A 
ATOM      6  C12 <0> d  11       3.763   2.581 -16.649  0.00  0.00     0.032 A 
ATOM      7  C13 <0> d  11       2.232   1.373 -18.590  0.00  0.00     0.032 A 
ATOM      8  C14 <0> d  11       2.340   0.253 -17.761  0.00  0.00     0.052 A 
ATOM      9  C15 <0> d  11       1.457  -0.803 -17.929  0.00  0.00     0.031 A 
ATOM     10  C16 <0> d  11       0.482  -0.740 -18.909  0.00  0.00     0.002 A 
ATOM     11  C17 <0> d  11       0.380   0.371 -19.725  0.00  0.00     0.002 A 
ATOM     12  C18 <0> d  11       1.257   1.431 -19.566  0.00  0.00     0.021 A 
ATOM     13  N1  <0> d  11       3.328   0.197 -16.772  0.00  0.00    -0.344 N 
ATOM     14  S1  <0> d  11       3.365   2.709 -18.364  0.00  0.00    -0.086 SA
ENDROOT
BRANCH  13  15
ATOM     15  C6  <0> d  11       3.990  -1.082 -16.500  0.00  0.00     0.136 C 
BRANCH  15  16
ATOM     16  C4  <0> d  11       5.176  -1.254 -17.449  0.00  0.00     0.031 C 
ATOM     17  C3  <0> d  11       6.516  -1.036 -16.700  0.00  0.00     0.035 C 
ATOM     18  C2  <0> d  11       7.496  -1.876 -17.556  0.00  0.00     0.234 C 
ATOM     19  N2  <0> d  11       6.711  -3.064 -17.949  0.00  0.00    -0.074 N 
ATOM     20  C1  <0> d  11       7.113  -3.515 -19.308  0.00  0.00     0.269 C 
ATOM     21  C5  <0> d  11       5.281  -2.716 -17.931  0.00  0.00     0.240 C 
ATOM     22  H21 <0> d  11       6.886  -3.822 -17.280  0.00  0.00     0.279 HD
ENDBRANCH  15  16
ENDBRANCH  13  15
TORSDOF 2
ENDMDL
MODEL 5
REMARK VINA RESULT:    -4.885      2.669      5.465
REMARK INTER + INTRA:          -5.275
REMARK INTER:                  -5.456
REMARK INTRA:                   0.180
REMARK UNBOUND:                 0.180
REMARK  2 active torsions:
REMARK  status: ('A' for Active; 'I' for Inactive)
REMARK    1  A    between atoms: C4_4  and  C6_6 
REMARK    2  A    between atoms: C6_6  and  N1_20 
ROOT
ATOM      1  C7  <0> d  11       2.976   0.893 -17.700  0.00  0.00     0.052 A 
ATOM      2  C8  <0> d  11       3.004   1.985 -18.552  0.00  0.00     0.031 A 
ATOM      3  C9  <0> d  11       3.476   3.204 -18.100  0.00  0.00     0.002 A 
ATOM      4  C10 <0> d  11       3.924   3.344 -16.801  0.00  0.00     0.002 A 
ATOM      5  C11 <0> d  11       3.900   2.259 -15.938  0.00  0.00     0.021 A 
ATOM      6  C12 <0> d  11       3.428   1.040 -16.385  0.00  0.00     0.032 A 
ATOM      7  C13 <0> d  11       3.549  -1.708 -16.440  0.00  0.00     0.032 A 
ATOM      8  C14 <0> d  11       3.085  -1.550 -17.748  0.00  0.00     0.052 A 
ATOM      9  C15 <0> d  11       3.208  -2.601 -18.644  0.00  0.00     0.031 A 
ATOM     10  C16 <0> d  11       3.786  -3.790 -18.239  0.00  0.00     0.002 A 
ATOM     11  C17 <0> d  11       4.244  -3.942 -16.943  0.00  0.00     0.002 A 
ATOM     12  C18 <0> d  11       4.126  -2.898 -16.040  0.00  0.00     0.021 A 
ATOM     13  N1  <0> d  11       2.502  -0.343 -18.150  0.00  0.00    -0.344 N 
ATOM     14  S1  <0> d  11       3.385  -0.360 -15.310  0.00  0.00    -0.086 SA
ENDROOT
BRANCH  13  15
ATOM     15  C6  <0> d  11       1.363  -0.376 -19.072  0.00  0.00     0.136 C 
BRANCH  15  16
ATOM     16  C4  <0> d  11       1.855  -0.121 -20.498  0.00  0.00     0.031 C 
ATOM     17  C3  <0> d  11       1.652  -1.379 -21.382  0.00  0.00     0.035 C 
ATOM     18  C2  <0> d  11       1.542  -0.755 -22.796  0.00  0.00     0.234 C 
ATOM     19  N2  <0> d  11       0.785   0.496 -22.585  0.00  0.00    -0.074 N 
ATOM     20  C1  <0> d  11       1.256   1.544 -23.529  0.00  0.00     0.269 C 
ATOM     21  C5  <0> d  11       0.977   0.940 -21.195  0.00  0.00     0.240 C 
ATOM     22  H21 <0> d  11      -0.212   0.320 -22.751  0.00  0.00     0.279 HD
ENDBRANCH  15  16
ENDBRANCH  13  15
TORSDOF 2
ENDMDL
