REMARK INTER + INTRA:          -7.228
REMARK INTER:                  -5.477
REMARK INTRA:                  -1.751
REMARK UNBOUND:                -1.751
REMARK  4 active torsions:
REMARK  status: ('A' for Active; 'I' for Inactive)
REMARK    1  A    between atoms: C4_4  and  N1_25 
REMARK    2  A    between atoms: C8_8  and  C16_16 
REMARK    3  A    between atoms: C9_9  and  C10_10 
REMARK    4  A    between atoms: C16_16  and  C17_17 
ROOT
ATOM      1  C7  <0> d  11       2.417   1.214 -20.717  0.00  0.00     0.271 A 
ATOM      2  C8  <0> d  11       2.641   1.331 -19.330  0.00  0.00     0.044 A 
ATOM      3  C9  <0> d  11       3.235   0.181 -18.901  0.00  0.00     0.070 A 
ATOM      4  H1  <0> d  11       3.770  -1.541 -19.973  0.00  0.00     0.187 HD
ATOM      5  N1  <0> d  11       2.868   0.007 -21.110  0.00  0.00    -0.252 N 
ATOM      6  N2  <0> d  11       3.379  -0.654 -19.985  0.00  0.00    -0.294 N 
ATOM      7  O1  <0> d  11       1.907   2.058 -21.433  0.00  0.00    -0.266 OA
ENDROOT
BRANCH   5   8
ATOM      8  C4  <0> d  11       2.828  -0.524 -22.476  0.00  0.00     0.115 C 
ATOM      9  C3  <0> d  11       3.948  -1.552 -22.657  0.00  0.00     0.055 C 
ATOM     10  C2  <0> d  11       3.864  -2.148 -24.065  0.00  0.00     0.236 C 
ATOM     11  N3  <0> d  11       2.550  -2.806 -24.230  0.00  0.00    -0.075 N 
ATOM     12  C1  <0> d  11       2.488  -3.486 -25.540  0.00  0.00     0.269 C 
ATOM     13  C6  <0> d  11       1.465  -1.807 -24.128  0.00  0.00     0.236 C 
ATOM     14  H26 <0> d  11       2.431  -3.503 -23.485  0.00  0.00     0.279 HD
ATOM     15  C5  <0> d  11       1.478  -1.202 -22.723  0.00  0.00     0.055 C 
ENDBRANCH   5   8
BRANCH   3  16
ATOM     16  C10 <0> d  11       3.649  -0.117 -17.514  0.00  0.00    -0.007 A 
ATOM     17  C15 <0> d  11       2.693  -0.463 -16.557  0.00  0.00     0.014 A 
ATOM     18  C14 <0> d  11       3.087  -0.740 -15.264  0.00  0.00     0.001 A 
ATOM     19  C13 <0> d  11       4.424  -0.676 -14.915  0.00  0.00     0.000 A 
ATOM     20  C12 <0> d  11       5.377  -0.335 -15.860  0.00  0.00     0.001 A 
ATOM     21  C11 <0> d  11       4.997  -0.060 -17.158  0.00  0.00     0.014 A 
ENDBRANCH   3  16
BRANCH   2  22
ATOM     22  C16 <0> d  11       2.290   2.519 -18.472  0.00  0.00     0.085 C 
BRANCH  22  23
ATOM     23  C17 <0> d  11       3.538   3.049 -17.813  0.00  0.00    -0.054 A 
ATOM     24  C22 <0> d  11       4.650   3.348 -18.577  0.00  0.00     0.007 A 
ATOM     25  C21 <0> d  11       5.794   3.834 -17.973  0.00  0.00     0.001 A 
ATOM     26  C20 <0> d  11       5.826   4.021 -16.604  0.00  0.00     0.000 A 
ATOM     27  C19 <0> d  11       4.713   3.725 -15.840  0.00  0.00     0.001 A 
ATOM     28  C18 <0> d  11       3.570   3.235 -16.443  0.00  0.00     0.007 A 
ENDBRANCH  22  23
ENDBRANCH   2  22
TORSDOF 4
ENDMDL
