MODEL 1
REMARK VINA RESULT:    -4.992      0.000      0.000
REMARK INTER + INTRA:          -7.909
REMARK INTER:                  -6.577
REMARK INTRA:                  -1.332
REMARK UNBOUND:                -1.751
REMARK  4 active torsions:
REMARK  status: ('A' for Active; 'I' for Inactive)
REMARK    1  A    between atoms: C4_4  and  N1_25 
REMARK    2  A    between atoms: C8_8  and  C16_16 
REMARK    3  A    between atoms: C9_9  and  C10_10 
REMARK    4  A    between atoms: C16_16  and  C17_17 
ROOT
ATOM      1  C7  <0> d  11       3.105   2.573 -18.135  0.00  0.00     0.271 A 
ATOM      2  C8  <0> d  11       2.276   1.668 -18.828  0.00  0.00     0.044 A 
ATOM      3  C9  <0> d  11       2.265   0.493 -18.138  0.00  0.00     0.070 A 
ATOM      4  H1  <0> d  11       3.255  -0.038 -16.366  0.00  0.00     0.187 HD
ATOM      5  N1  <0> d  11       3.587   1.943 -17.046  0.00  0.00    -0.252 N 
ATOM      6  N2  <0> d  11       3.075   0.640 -17.035  0.00  0.00    -0.294 N 
ATOM      7  O1  <0> d  11       3.342   3.722 -18.463  0.00  0.00    -0.266 OA
ENDROOT
BRANCH   5   8
ATOM      8  C4  <0> d  11       4.492   2.521 -16.048  0.00  0.00     0.115 C 
ATOM      9  C3  <0> d  11       5.721   3.105 -16.750  0.00  0.00     0.055 C 
ATOM     10  C2  <0> d  11       6.633   3.761 -15.710  0.00  0.00     0.236 C 
ATOM     11  N3  <0> d  11       5.886   4.842 -15.031  0.00  0.00    -0.075 N 
ATOM     12  C1  <0> d  11       6.779   5.565 -14.102  0.00  0.00     0.269 C 
ATOM     13  C6  <0> d  11       4.738   4.278 -14.290  0.00  0.00     0.236 C 
ATOM     14  H26 <0> d  11       5.535   5.499 -15.738  0.00  0.00     0.279 HD
ATOM     15  C5  <0> d  11       3.770   3.637 -15.288  0.00  0.00     0.055 C 
ENDBRANCH   5   8
BRANCH   3  16
ATOM     16  C10 <0> d  11       1.518  -0.726 -18.510  0.00  0.00    -0.007 A 
ATOM     17  C15 <0> d  11       2.179  -1.796 -19.116  0.00  0.00     0.014 A 
ATOM     18  C14 <0> d  11       1.475  -2.932 -19.461  0.00  0.00     0.001 A 
ATOM     19  C13 <0> d  11       0.117  -3.010 -19.209  0.00  0.00     0.000 A 
ATOM     20  C12 <0> d  11      -0.545  -1.953 -18.609  0.00  0.00     0.001 A 
ATOM     21  C11 <0> d  11       0.149  -0.815 -18.253  0.00  0.00     0.014 A 
ENDBRANCH   3  16
BRANCH   2  22
ATOM     22  C16 <0> d  11       1.528   1.951 -20.106  0.00  0.00     0.085 C 
BRANCH  22  23
ATOM     23  C17 <0> d  11       2.031   1.038 -21.195  0.00  0.00    -0.054 A 
ATOM     24  C22 <0> d  11       3.390   0.902 -21.411  0.00  0.00     0.007 A 
ATOM     25  C21 <0> d  11       3.851   0.064 -22.408  0.00  0.00     0.001 A 
ATOM     26  C20 <0> d  11       2.954  -0.639 -23.189  0.00  0.00     0.000 A 
ATOM     27  C19 <0> d  11       1.595  -0.507 -22.971  0.00  0.00     0.001 A 
ATOM     28  C18 <0> d  11       1.133   0.334 -21.976  0.00  0.00     0.007 A 
ENDBRANCH  22  23
ENDBRANCH   2  22
TORSDOF 4
ENDMDL
MODEL 2
REMARK VINA RESULT:    -4.645      1.419      3.341
REMARK INTER + INTRA:          -7.482
REMARK INTER:                  -5.755
REMARK INTRA:                  -1.727
REMARK UNBOUND:                -1.751
REMARK  4 active torsions:
REMARK  status: ('A' for Active; 'I' for Inactive)
REMARK    1  A    between atoms: C4_4  and  N1_25 
REMARK    2  A    between atoms: C8_8  and  C16_16 
REMARK    3  A    between atoms: C9_9  and  C10_10 
REMARK    4  A    between atoms: C16_16  and  C17_17 
ROOT
ATOM      1  C7  <0> d  11       3.016   0.364 -16.851  0.00  0.00     0.271 A 
ATOM      2  C8  <0> d  11       2.319  -0.086 -17.990  0.00  0.00     0.044 A 
ATOM      3  C9  <0> d  11       2.766   0.624 -19.065  0.00  0.00     0.070 A 
ATOM      4  H1  <0> d  11       4.205   2.147 -19.170  0.00  0.00     0.187 HD
ATOM      5  N1  <0> d  11       3.865   1.335 -17.240  0.00  0.00    -0.252 N 
ATOM      6  N2  <0> d  11       3.718   1.513 -18.621  0.00  0.00    -0.294 N 
ATOM      7  O1  <0> d  11       2.874  -0.053 -15.714  0.00  0.00    -0.266 OA
ENDROOT
BRANCH   5   8
ATOM      8  C4  <0> d  11       4.781   2.077 -16.369  0.00  0.00     0.115 C 
ATOM      9  C3  <0> d  11       5.862   2.750 -17.219  0.00  0.00     0.055 C 
ATOM     10  C2  <0> d  11       6.779   3.573 -16.311  0.00  0.00     0.236 C 
ATOM     11  N3  <0> d  11       5.973   4.604 -15.623  0.00  0.00    -0.075 N 
ATOM     12  C1  <0> d  11       6.854   5.484 -14.828  0.00  0.00     0.269 C 
ATOM     13  C6  <0> d  11       4.973   3.963 -14.743  0.00  0.00     0.236 C 
ATOM     14  H26 <0> d  11       5.483   5.169 -16.327  0.00  0.00     0.279 HD
ATOM     15  C5  <0> d  11       4.002   3.152 -15.604  0.00  0.00     0.055 C 
ENDBRANCH   5   8
BRANCH   3  16
ATOM     16  C10 <0> d  11       2.305   0.469 -20.460  0.00  0.00    -0.007 A 
ATOM     17  C15 <0> d  11       3.050  -0.293 -21.363  0.00  0.00     0.014 A 
ATOM     18  C14 <0> d  11       2.614  -0.434 -22.664  0.00  0.00     0.001 A 
ATOM     19  C13 <0> d  11       1.443   0.178 -23.076  0.00  0.00     0.000 A 
ATOM     20  C12 <0> d  11       0.700   0.934 -22.186  0.00  0.00     0.001 A 
ATOM     21  C11 <0> d  11       1.122   1.078 -20.880  0.00  0.00     0.014 A 
ENDBRANCH   3  16
BRANCH   2  22
ATOM     22  C16 <0> d  11       1.268  -1.166 -18.018  0.00  0.00     0.085 C 
BRANCH  22  23
ATOM     23  C17 <0> d  11       1.774  -2.339 -18.817  0.00  0.00    -0.054 A 
ATOM     24  C22 <0> d  11       1.008  -2.860 -19.843  0.00  0.00     0.007 A 
ATOM     25  C21 <0> d  11       1.474  -3.935 -20.576  0.00  0.00     0.001 A 
ATOM     26  C20 <0> d  11       2.705  -4.489 -20.285  0.00  0.00     0.000 A 
ATOM     27  C19 <0> d  11       3.474  -3.966 -19.261  0.00  0.00     0.001 A 
ATOM     28  C18 <0> d  11       3.007  -2.893 -18.525  0.00  0.00     0.007 A 
ENDBRANCH  22  23
ENDBRANCH   2  22
TORSDOF 4
ENDMDL
MODEL 3
REMARK VINA RESULT:    -4.505      3.485      7.946
REMARK INTER + INTRA:          -7.309
REMARK INTER:                  -5.542
REMARK INTRA:                  -1.767
REMARK UNBOUND:                -1.751
REMARK  4 active torsions:
REMARK  status: ('A' for Active; 'I' for Inactive)
REMARK    1  A    between atoms: C4_4  and  N1_25 
REMARK    2  A    between atoms: C8_8  and  C16_16 
REMARK    3  A    between atoms: C9_9  and  C10_10 
REMARK    4  A    between atoms: C16_16  and  C17_17 
ROOT
ATOM      1  C7  <0> d  11       1.365  -2.104 -19.478  0.00  0.00     0.271 A 
ATOM      2  C8  <0> d  11       1.887  -1.066 -18.679  0.00  0.00     0.044 A 
ATOM      3  C9  <0> d  11       2.633  -0.253 -19.480  0.00  0.00     0.070 A 
ATOM      4  H1  <0> d  11       3.042  -0.390 -21.533  0.00  0.00     0.187 HD
ATOM      5  N1  <0> d  11       1.799  -1.916 -20.739  0.00  0.00    -0.252 N 
ATOM      6  N2  <0> d  11       2.597  -0.765 -20.757  0.00  0.00    -0.294 N 
ATOM      7  O1  <0> d  11       0.647  -3.011 -19.094  0.00  0.00    -0.266 OA
ENDROOT
BRANCH   5   8
ATOM      8  C4  <0> d  11       1.492  -2.768 -21.891  0.00  0.00     0.115 C 
ATOM      9  C3  <0> d  11       1.644  -1.957 -23.181  0.00  0.00     0.055 C 
ATOM     10  C2  <0> d  11       1.382  -2.867 -24.384  0.00  0.00     0.236 C 
ATOM     11  N3  <0> d  11       2.363  -3.974 -24.371  0.00  0.00    -0.075 N 
ATOM     12  C1  <0> d  11       2.203  -4.803 -25.584  0.00  0.00     0.269 C 
ATOM     13  C6  <0> d  11       2.175  -4.805 -23.163  0.00  0.00     0.236 C 
ATOM     14  H26 <0> d  11       3.311  -3.579 -24.358  0.00  0.00     0.279 HD
ATOM     15  C5  <0> d  11       2.461  -3.953 -21.925  0.00  0.00     0.055 C 
ENDBRANCH   5   8
BRANCH   3  16
ATOM     16  C10 <0> d  11       3.357   0.961 -19.050  0.00  0.00    -0.007 A 
ATOM     17  C15 <0> d  11       4.752   0.966 -19.004  0.00  0.00     0.014 A 
ATOM     18  C14 <0> d  11       5.421   2.104 -18.603  0.00  0.00     0.001 A 
ATOM     19  C13 <0> d  11       4.713   3.237 -18.245  0.00  0.00     0.000 A 
ATOM     20  C12 <0> d  11       3.330   3.240 -18.289  0.00  0.00     0.001 A 
ATOM     21  C11 <0> d  11       2.648   2.110 -18.695  0.00  0.00     0.014 A 
ENDBRANCH   3  16
BRANCH   2  22
ATOM     22  C16 <0> d  11       1.657  -0.884 -17.200  0.00  0.00     0.085 C 
BRANCH  22  23
ATOM     23  C17 <0> d  11       2.973  -0.986 -16.471  0.00  0.00    -0.054 A 
ATOM     24  C22 <0> d  11       3.778  -2.094 -16.651  0.00  0.00     0.007 A 
ATOM     25  C21 <0> d  11       4.985  -2.187 -15.983  0.00  0.00     0.001 A 
ATOM     26  C20 <0> d  11       5.386  -1.172 -15.136  0.00  0.00     0.000 A 
ATOM     27  C19 <0> d  11       4.582  -0.060 -14.960  0.00  0.00     0.001 A 
ATOM     28  C18 <0> d  11       3.373   0.031 -15.624  0.00  0.00     0.007 A 
ENDBRANCH  22  23
ENDBRANCH   2  22
TORSDOF 4
ENDMDL
MODEL 4
REMARK VINA RESULT:    -4.457      3.170      7.017
REMARK INTER + INTRA:          -7.250
REMARK INTER:                  -5.720
REMARK INTRA:                  -1.531
REMARK UNBOUND:                -1.751
REMARK  4 active torsions:
REMARK  status: ('A' for Active; 'I' for Inactive)
REMARK    1  A    between atoms: C4_4  and  N1_25 
REMARK    2  A    between atoms: C8_8  and  C16_16 
REMARK    3  A    between atoms: C9_9  and  C10_10 
REMARK    4  A    between atoms: C16_16  and  C17_17 
ROOT
ATOM      1  C7  <0> d  11       1.494  -0.492 -19.126  0.00  0.00     0.271 A 
ATOM      2  C8  <0> d  11       2.304  -1.118 -18.158  0.00  0.00     0.044 A 
ATOM      3  C9  <0> d  11       3.361  -1.692 -18.800  0.00  0.00     0.070 A 
ATOM      4  H1  <0> d  11       3.831  -1.739 -20.844  0.00  0.00     0.187 HD
ATOM      5  N1  <0> d  11       2.057  -0.694 -20.333  0.00  0.00    -0.252 N 
ATOM      6  N2  <0> d  11       3.224  -1.446 -20.147  0.00  0.00    -0.294 N 
ATOM      7  O1  <0> d  11       0.465   0.124 -18.909  0.00  0.00    -0.266 OA
ENDROOT
BRANCH   5   8
ATOM      8  C4  <0> d  11       1.539  -0.212 -21.617  0.00  0.00     0.115 C 
ATOM      9  C3  <0> d  11       1.987   1.236 -21.837  0.00  0.00     0.055 C 
ATOM     10  C2  <0> d  11       1.495   1.713 -23.205  0.00  0.00     0.236 C 
ATOM     11  N3  <0> d  11       2.075   0.847 -24.254  0.00  0.00    -0.075 N 
ATOM     12  C1  <0> d  11       1.706   1.357 -25.591  0.00  0.00     0.269 C 
ATOM     13  C6  <0> d  11       1.590  -0.540 -24.091  0.00  0.00     0.236 C 
ATOM     14  H26 <0> d  11       3.098   0.854 -24.164  0.00  0.00     0.279 HD
ATOM     15  C5  <0> d  11       2.085  -1.085 -22.750  0.00  0.00     0.055 C 
ENDBRANCH   5   8
BRANCH   3  16
ATOM     16  C10 <0> d  11       4.459  -2.448 -18.162  0.00  0.00    -0.007 A 
ATOM     17  C15 <0> d  11       4.307  -3.809 -17.890  0.00  0.00     0.014 A 
ATOM     18  C14 <0> d  11       5.336  -4.508 -17.294  0.00  0.00     0.001 A 
ATOM     19  C13 <0> d  11       6.516  -3.864 -16.966  0.00  0.00     0.000 A 
ATOM     20  C12 <0> d  11       6.673  -2.515 -17.234  0.00  0.00     0.001 A 
ATOM     21  C11 <0> d  11       5.654  -1.805 -17.835  0.00  0.00     0.014 A 
ENDBRANCH   3  16
BRANCH   2  22
ATOM     22  C16 <0> d  11       2.051  -1.145 -16.672  0.00  0.00     0.085 C 
BRANCH  22  23
ATOM     23  C17 <0> d  11       2.987  -0.184 -15.986  0.00  0.00    -0.054 A 
ATOM     24  C22 <0> d  11       3.464  -0.468 -14.720  0.00  0.00     0.007 A 
ATOM     25  C21 <0> d  11       4.323   0.413 -14.091  0.00  0.00     0.001 A 
ATOM     26  C20 <0> d  11       4.707   1.577 -14.728  0.00  0.00     0.000 A 
ATOM     27  C19 <0> d  11       4.234   1.860 -15.997  0.00  0.00     0.001 A 
ATOM     28  C18 <0> d  11       3.371   0.981 -16.624  0.00  0.00     0.007 A 
ENDBRANCH  22  23
ENDBRANCH   2  22
TORSDOF 4
ENDMDL
MODEL 5
REMARK VINA RESULT:    -4.439      2.744      7.123
REMARK INTER + INTRA:          -7.228
REMARK INTER:                  -5.477
REMARK INTRA:                  -1.751
REMARK UNBOUND:                -1.751
REMARK  4 active torsions:
REMARK  status: ('A' for Active; 'I' for Inactive)
REMARK    1  A    between atoms: C4_4  and  N1_25 
REMARK    2  A    between atoms: C8_8  and  C16_16 
REMARK    3  A    between atoms: C9_9  and  C10_10 
REMARK    4  A    between atoms: C16_16  and  C17_17 
ROOT
ATOM      1  C7  <0> d  11       2.417   1.214 -20.717  0.00  0.00     0.271 A 
ATOM      2  C8  <0> d  11       2.641   1.331 -19.330  0.00  0.00     0.044 A 
ATOM      3  C9  <0> d  11       3.235   0.181 -18.901  0.00  0.00     0.070 A 
ATOM      4  H1  <0> d  11       3.770  -1.541 -19.973  0.00  0.00     0.187 HD
ATOM      5  N1  <0> d  11       2.868   0.007 -21.110  0.00  0.00    -0.252 N 
ATOM      6  N2  <0> d  11       3.379  -0.654 -19.985  0.00  0.00    -0.294 N 
ATOM      7  O1  <0> d  11       1.907   2.058 -21.433  0.00  0.00    -0.266 OA
ENDROOT
BRANCH   5   8
ATOM      8  C4  <0> d  11       2.828  -0.524 -22.476  0.00  0.00     0.115 C 
ATOM      9  C3  <0> d  11       3.948  -1.552 -22.657  0.00  0.00     0.055 C 
ATOM     10  C2  <0> d  11       3.864  -2.148 -24.065  0.00  0.00     0.236 C 
ATOM     11  N3  <0> d  11       2.550  -2.806 -24.230  0.00  0.00    -0.075 N 
ATOM     12  C1  <0> d  11       2.488  -3.486 -25.540  0.00  0.00     0.269 C 
ATOM     13  C6  <0> d  11       1.465  -1.807 -24.128  0.00  0.00     0.236 C 
ATOM     14  H26 <0> d  11       2.431  -3.503 -23.485  0.00  0.00     0.279 HD
ATOM     15  C5  <0> d  11       1.478  -1.202 -22.723  0.00  0.00     0.055 C 
ENDBRANCH   5   8
BRANCH   3  16
ATOM     16  C10 <0> d  11       3.649  -0.117 -17.514  0.00  0.00    -0.007 A 
ATOM     17  C15 <0> d  11       2.693  -0.463 -16.557  0.00  0.00     0.014 A 
ATOM     18  C14 <0> d  11       3.087  -0.740 -15.264  0.00  0.00     0.001 A 
ATOM     19  C13 <0> d  11       4.424  -0.676 -14.915  0.00  0.00     0.000 A 
ATOM     20  C12 <0> d  11       5.377  -0.335 -15.860  0.00  0.00     0.001 A 
ATOM     21  C11 <0> d  11       4.997  -0.060 -17.158  0.00  0.00     0.014 A 
ENDBRANCH   3  16
BRANCH   2  22
ATOM     22  C16 <0> d  11       2.290   2.519 -18.472  0.00  0.00     0.085 C 
BRANCH  22  23
ATOM     23  C17 <0> d  11       3.538   3.049 -17.813  0.00  0.00    -0.054 A 
ATOM     24  C22 <0> d  11       4.650   3.348 -18.577  0.00  0.00     0.007 A 
ATOM     25  C21 <0> d  11       5.794   3.834 -17.973  0.00  0.00     0.001 A 
ATOM     26  C20 <0> d  11       5.826   4.021 -16.604  0.00  0.00     0.000 A 
ATOM     27  C19 <0> d  11       4.713   3.725 -15.840  0.00  0.00     0.001 A 
ATOM     28  C18 <0> d  11       3.570   3.235 -16.443  0.00  0.00     0.007 A 
ENDBRANCH  22  23
ENDBRANCH   2  22
TORSDOF 4
ENDMDL
