REMARK INTER + INTRA:          -5.251
REMARK INTER:                  -4.809
REMARK INTRA:                  -0.441
REMARK UNBOUND:                -0.441
REMARK  2 active torsions:
REMARK  status: ('A' for Active; 'I' for Inactive)
REMARK    1  A    between atoms: C4_4  and  C6_6 
REMARK    2  A    between atoms: C6_6  and  N1_20 
ROOT
ATOM      1  C7  <0> d  11       3.966   0.367 -20.219  0.00  0.00     0.052 A 
ATOM      2  C8  <0> d  11       5.317   0.226 -20.492  0.00  0.00     0.031 A 
ATOM      3  C9  <0> d  11       6.222   1.154 -20.007  0.00  0.00     0.002 A 
ATOM      4  C10 <0> d  11       5.789   2.225 -19.250  0.00  0.00     0.002 A 
ATOM      5  C11 <0> d  11       4.439   2.377 -18.971  0.00  0.00     0.021 A 
ATOM      6  C12 <0> d  11       3.533   1.454 -19.454  0.00  0.00     0.032 A 
ATOM      7  C13 <0> d  11       1.252  -0.056 -19.153  0.00  0.00     0.032 A 
ATOM      8  C14 <0> d  11       1.939  -0.975 -19.951  0.00  0.00     0.052 A 
ATOM      9  C15 <0> d  11       1.512  -2.293 -19.989  0.00  0.00     0.031 A 
ATOM     10  C16 <0> d  11       0.417  -2.686 -19.241  0.00  0.00     0.002 A 
ATOM     11  C17 <0> d  11      -0.259  -1.773 -18.453  0.00  0.00     0.002 A 
ATOM     12  C18 <0> d  11       0.159  -0.454 -18.408  0.00  0.00     0.021 A 
ATOM     13  N1  <0> d  11       3.047  -0.568 -20.704  0.00  0.00    -0.344 N 
ATOM     14  S1  <0> d  11       1.808   1.621 -19.116  0.00  0.00    -0.086 SA
ENDROOT
BRANCH  13  15
ATOM     15  C6  <0> d  11       3.249  -1.142 -22.036  0.00  0.00     0.136 C 
BRANCH  15  16
ATOM     16  C4  <0> d  11       3.136  -0.038 -23.089  0.00  0.00     0.031 C 
ATOM     17  C3  <0> d  11       3.187  -0.638 -24.519  0.00  0.00     0.035 C 
ATOM     18  C2  <0> d  11       2.412   0.429 -25.333  0.00  0.00     0.234 C 
ATOM     19  N2  <0> d  11       1.326   0.859 -24.431  0.00  0.00    -0.074 N 
ATOM     20  C1  <0> d  11       1.030   2.301 -24.640  0.00  0.00     0.269 C 
ATOM     21  C5  <0> d  11       1.742   0.623 -23.040  0.00  0.00     0.240 C 
ATOM     22  H21 <0> d  11       0.481   0.312 -24.630  0.00  0.00     0.279 HD
ENDBRANCH  15  16
ENDBRANCH  13  15
TORSDOF 2
ENDMDL
