MODEL 1
REMARK VINA RESULT:    -5.750      0.000      0.000
REMARK INTER + INTRA:          -7.384
REMARK INTER:                  -6.929
REMARK INTRA:                  -0.455
REMARK UNBOUND:                -0.625
REMARK  3 active torsions:
REMARK  status: ('A' for Active; 'I' for Inactive)
REMARK    1  A    between atoms: C4_4  and  C7_7 
REMARK    2  A    between atoms: C14_14  and  C16_16 
REMARK    3  A    between atoms: C16_16  and  C17_17 
ROOT
ATOM      1  C7  <0> d  11       2.394   0.183 -18.614  0.00  0.00     0.090 A 
ATOM      2  C8  <0> d  11       1.971   1.393 -19.070  0.00  0.00     0.093 A 
ATOM      3  C9  <0> d  11       1.569   1.527 -20.420  0.00  0.00     0.187 A 
ATOM      4  C10 <0> d  11       1.625   0.320 -21.267  0.00  0.00     0.048 A 
ATOM      5  C11 <0> d  11       1.244   0.356 -22.607  0.00  0.00     0.018 A 
ATOM      6  C12 <0> d  11       1.311  -0.793 -23.365  0.00  0.00     0.002 A 
ATOM      7  C13 <0> d  11       1.755  -1.979 -22.799  0.00  0.00     0.010 A 
ATOM      8  C14 <0> d  11       2.133  -2.028 -21.475  0.00  0.00    -0.013 A 
ATOM      9  C15 <0> d  11       2.073  -0.880 -20.693  0.00  0.00     0.097 A 
ATOM     10  O1  <0> d  11       1.188   2.597 -20.865  0.00  0.00    -0.287 OA
ATOM     11  O2  <0> d  11       2.440  -0.907 -19.395  0.00  0.00    -0.308 OA
ENDROOT
BRANCH   1  12
ATOM     12  C4  <0> d  11       2.815   0.064 -17.204  0.00  0.00    -0.002 A 
ATOM     13  C3  <0> d  11       2.580  -1.119 -16.499  0.00  0.00     0.014 A 
ATOM     14  C2  <0> d  11       2.976  -1.223 -15.182  0.00  0.00     0.001 A 
ATOM     15  C1  <0> d  11       3.605  -0.160 -14.558  0.00  0.00     0.000 A 
ATOM     16  C6  <0> d  11       3.840   1.015 -15.250  0.00  0.00     0.001 A 
ATOM     17  C5  <0> d  11       3.455   1.131 -16.570  0.00  0.00     0.014 A 
ENDBRANCH   1  12
BRANCH   8  18
ATOM     18  C16 <0> d  11       2.611  -3.325 -20.874  0.00  0.00     0.154 C 
BRANCH  18  19
ATOM     19  C17 <0> d  11       1.473  -3.989 -20.141  0.00  0.00     0.177 C 
ATOM     20  O3  <0> d  11       0.357  -3.955 -20.601  0.00  0.00    -0.648 OA
ATOM     21  O4  <0> d  11       1.701  -4.617 -18.978  0.00  0.00    -0.648 OA
ENDBRANCH  18  19
ENDBRANCH   8  18
TORSDOF 3
ENDMDL
MODEL 2
REMARK VINA RESULT:    -5.343      2.162      6.799
REMARK INTER + INTRA:          -6.906
REMARK INTER:                  -6.534
REMARK INTRA:                  -0.371
REMARK UNBOUND:                -0.625
REMARK  3 active torsions:
REMARK  status: ('A' for Active; 'I' for Inactive)
REMARK    1  A    between atoms: C4_4  and  C7_7 
REMARK    2  A    between atoms: C14_14  and  C16_16 
REMARK    3  A    between atoms: C16_16  and  C17_17 
ROOT
ATOM      1  C7  <0> d  11       1.972   0.171 -20.853  0.00  0.00     0.090 A 
ATOM      2  C8  <0> d  11       1.509  -1.042 -20.445  0.00  0.00     0.093 A 
ATOM      3  C9  <0> d  11       1.663  -1.427 -19.092  0.00  0.00     0.187 A 
ATOM      4  C10 <0> d  11       2.321  -0.467 -18.184  0.00  0.00     0.048 A 
ATOM      5  C11 <0> d  11       2.512  -0.759 -16.835  0.00  0.00     0.018 A 
ATOM      6  C12 <0> d  11       3.132   0.164 -16.020  0.00  0.00     0.002 A 
ATOM      7  C13 <0> d  11       3.563   1.376 -16.538  0.00  0.00     0.010 A 
ATOM      8  C14 <0> d  11       3.378   1.677 -17.871  0.00  0.00    -0.013 A 
ATOM      9  C15 <0> d  11       2.756   0.760 -18.710  0.00  0.00     0.097 A 
ATOM     10  O1  <0> d  11       1.266  -2.508 -18.691  0.00  0.00    -0.287 OA
ATOM     11  O2  <0> d  11       2.568   1.034 -20.017  0.00  0.00    -0.308 OA
ENDROOT
BRANCH   1  12
ATOM     12  C4  <0> d  11       1.807   0.553 -22.269  0.00  0.00    -0.002 A 
ATOM     13  C3  <0> d  11       1.870  -0.419 -23.270  0.00  0.00     0.014 A 
ATOM     14  C2  <0> d  11       1.714  -0.054 -24.591  0.00  0.00     0.001 A 
ATOM     15  C1  <0> d  11       1.495   1.270 -24.927  0.00  0.00     0.000 A 
ATOM     16  C6  <0> d  11       1.432   2.239 -23.940  0.00  0.00     0.001 A 
ATOM     17  C5  <0> d  11       1.580   1.887 -22.614  0.00  0.00     0.014 A 
ENDBRANCH   1  12
BRANCH   8  18
ATOM     18  C16 <0> d  11       3.851   3.000 -18.418  0.00  0.00     0.154 C 
BRANCH  18  19
ATOM     19  C17 <0> d  11       3.484   4.101 -17.457  0.00  0.00     0.177 C 
ATOM     20  O3  <0> d  11       4.260   4.432 -16.593  0.00  0.00    -0.648 OA
ATOM     21  O4  <0> d  11       2.296   4.715 -17.562  0.00  0.00    -0.648 OA
ENDBRANCH  18  19
ENDBRANCH   8  18
TORSDOF 3
ENDMDL
MODEL 3
REMARK VINA RESULT:    -5.062      2.311      6.679
REMARK INTER + INTRA:          -6.575
REMARK INTER:                  -6.024
REMARK INTRA:                  -0.552
REMARK UNBOUND:                -0.625
REMARK  3 active torsions:
REMARK  status: ('A' for Active; 'I' for Inactive)
REMARK    1  A    between atoms: C4_4  and  C7_7 
REMARK    2  A    between atoms: C14_14  and  C16_16 
REMARK    3  A    between atoms: C16_16  and  C17_17 
ROOT
ATOM      1  C7  <0> d  11       2.725  -0.874 -17.725  0.00  0.00     0.090 A 
ATOM      2  C8  <0> d  11       2.628  -1.667 -16.624  0.00  0.00     0.093 A 
ATOM      3  C9  <0> d  11       3.021  -1.160 -15.363  0.00  0.00     0.187 A 
ATOM      4  C10 <0> d  11       3.514   0.231 -15.316  0.00  0.00     0.048 A 
ATOM      5  C11 <0> d  11       3.919   0.815 -14.118  0.00  0.00     0.018 A 
ATOM      6  C12 <0> d  11       4.374   2.116 -14.115  0.00  0.00     0.002 A 
ATOM      7  C13 <0> d  11       4.429   2.841 -15.297  0.00  0.00     0.010 A 
ATOM      8  C14 <0> d  11       4.030   2.274 -16.488  0.00  0.00    -0.013 A 
ATOM      9  C15 <0> d  11       3.568   0.963 -16.512  0.00  0.00     0.097 A 
ATOM     10  O1  <0> d  11       2.952  -1.843 -14.355  0.00  0.00    -0.287 OA
ATOM     11  O2  <0> d  11       3.174   0.389 -17.668  0.00  0.00    -0.308 OA
ENDROOT
BRANCH   1  12
ATOM     12  C4  <0> d  11       2.314  -1.422 -19.033  0.00  0.00    -0.002 A 
ATOM     13  C3  <0> d  11       1.564  -2.599 -19.097  0.00  0.00     0.014 A 
ATOM     14  C2  <0> d  11       1.184  -3.105 -20.322  0.00  0.00     0.001 A 
ATOM     15  C1  <0> d  11       1.543  -2.451 -21.487  0.00  0.00     0.000 A 
ATOM     16  C6  <0> d  11       2.287  -1.285 -21.432  0.00  0.00     0.001 A 
ATOM     17  C5  <0> d  11       2.669  -0.764 -20.213  0.00  0.00     0.014 A 
ENDBRANCH   1  12
BRANCH   8  18
ATOM     18  C16 <0> d  11       4.094   3.074 -17.764  0.00  0.00     0.154 C 
BRANCH  18  19
ATOM     19  C17 <0> d  11       2.741   3.674 -18.048  0.00  0.00     0.177 C 
ATOM     20  O3  <0> d  11       1.982   3.120 -18.806  0.00  0.00    -0.648 OA
ATOM     21  O4  <0> d  11       2.380   4.824 -17.459  0.00  0.00    -0.648 OA
ENDBRANCH  18  19
ENDBRANCH   8  18
TORSDOF 3
ENDMDL
MODEL 4
REMARK VINA RESULT:    -5.046      1.910      4.201
REMARK INTER + INTRA:          -6.556
REMARK INTER:                  -5.910
REMARK INTRA:                  -0.647
REMARK UNBOUND:                -0.625
REMARK  3 active torsions:
REMARK  status: ('A' for Active; 'I' for Inactive)
REMARK    1  A    between atoms: C4_4  and  C7_7 
REMARK    2  A    between atoms: C14_14  and  C16_16 
REMARK    3  A    between atoms: C16_16  and  C17_17 
ROOT
ATOM      1  C7  <0> d  11       2.643   0.404 -18.974  0.00  0.00     0.090 A 
ATOM      2  C8  <0> d  11       2.740  -0.865 -18.492  0.00  0.00     0.093 A 
ATOM      3  C9  <0> d  11       2.431  -1.957 -19.337  0.00  0.00     0.187 A 
ATOM      4  C10 <0> d  11       2.022  -1.648 -20.721  0.00  0.00     0.048 A 
ATOM      5  C11 <0> d  11       1.703  -2.659 -21.625  0.00  0.00     0.018 A 
ATOM      6  C12 <0> d  11       1.326  -2.330 -22.909  0.00  0.00     0.002 A 
ATOM      7  C13 <0> d  11       1.263  -1.001 -23.301  0.00  0.00     0.010 A 
ATOM      8  C14 <0> d  11       1.577   0.008 -22.416  0.00  0.00    -0.013 A 
ATOM      9  C15 <0> d  11       1.960  -0.302 -21.116  0.00  0.00     0.097 A 
ATOM     10  O1  <0> d  11       2.502  -3.107 -18.938  0.00  0.00    -0.287 OA
ATOM     11  O2  <0> d  11       2.270   0.670 -20.235  0.00  0.00    -0.308 OA
ENDROOT
BRANCH   1  12
ATOM     12  C4  <0> d  11       2.965   1.530 -18.076  0.00  0.00    -0.002 A 
ATOM     13  C3  <0> d  11       2.770   2.846 -18.502  0.00  0.00     0.014 A 
ATOM     14  C2  <0> d  11       3.073   3.893 -17.657  0.00  0.00     0.001 A 
ATOM     15  C1  <0> d  11       3.567   3.644 -16.390  0.00  0.00     0.000 A 
ATOM     16  C6  <0> d  11       3.763   2.343 -15.960  0.00  0.00     0.001 A 
ATOM     17  C5  <0> d  11       3.459   1.286 -16.792  0.00  0.00     0.014 A 
ENDBRANCH   1  12
BRANCH   8  18
ATOM     18  C16 <0> d  11       1.506   1.448 -22.857  0.00  0.00     0.154 C 
BRANCH  18  19
ATOM     19  C17 <0> d  11       2.577   1.713 -23.883  0.00  0.00     0.177 C 
ATOM     20  O3  <0> d  11       3.731   1.813 -23.540  0.00  0.00    -0.648 OA
ATOM     21  O4  <0> d  11       2.249   1.836 -25.178  0.00  0.00    -0.648 OA
ENDBRANCH  18  19
ENDBRANCH   8  18
TORSDOF 3
ENDMDL
MODEL 5
REMARK VINA RESULT:    -4.986      1.378      3.903
REMARK INTER + INTRA:          -6.486
REMARK INTER:                  -5.861
REMARK INTRA:                  -0.625
REMARK UNBOUND:                -0.625
REMARK  3 active torsions:
REMARK  status: ('A' for Active; 'I' for Inactive)
REMARK    1  A    between atoms: C4_4  and  C7_7 
REMARK    2  A    between atoms: C14_14  and  C16_16 
REMARK    3  A    between atoms: C16_16  and  C17_17 
ROOT
ATOM      1  C7  <0> d  11       2.262  -1.216 -19.571  0.00  0.00     0.090 A 
ATOM      2  C8  <0> d  11       1.694  -2.442 -19.420  0.00  0.00     0.093 A 
ATOM      3  C9  <0> d  11       1.279  -3.164 -20.565  0.00  0.00     0.187 A 
ATOM      4  C10 <0> d  11       1.501  -2.533 -21.881  0.00  0.00     0.048 A 
ATOM      5  C11 <0> d  11       1.128  -3.171 -23.062  0.00  0.00     0.018 A 
ATOM      6  C12 <0> d  11       1.352  -2.548 -24.271  0.00  0.00     0.002 A 
ATOM      7  C13 <0> d  11       1.944  -1.295 -24.314  0.00  0.00     0.010 A 
ATOM      8  C14 <0> d  11       2.318  -0.654 -23.152  0.00  0.00    -0.013 A 
ATOM      9  C15 <0> d  11       2.101  -1.265 -21.922  0.00  0.00     0.097 A 
ATOM     10  O1  <0> d  11       0.762  -4.264 -20.468  0.00  0.00    -0.287 OA
ATOM     11  O2  <0> d  11       2.458  -0.654 -20.773  0.00  0.00    -0.308 OA
ENDROOT
BRANCH   1  12
ATOM     12  C4  <0> d  11       2.684  -0.476 -18.365  0.00  0.00    -0.002 A 
ATOM     13  C3  <0> d  11       2.676  -1.104 -17.117  0.00  0.00     0.014 A 
ATOM     14  C2  <0> d  11       3.072  -0.407 -15.995  0.00  0.00     0.001 A 
ATOM     15  C1  <0> d  11       3.477   0.911 -16.102  0.00  0.00     0.000 A 
ATOM     16  C6  <0> d  11       3.487   1.540 -17.335  0.00  0.00     0.001 A 
ATOM     17  C5  <0> d  11       3.100   0.854 -18.466  0.00  0.00     0.014 A 
ENDBRANCH   1  12
BRANCH   8  18
ATOM     18  C16 <0> d  11       2.962   0.707 -23.214  0.00  0.00     0.154 C 
BRANCH  18  19
ATOM     19  C17 <0> d  11       1.896   1.770 -23.145  0.00  0.00     0.177 C 
ATOM     20  O3  <0> d  11       1.633   2.294 -22.089  0.00  0.00    -0.648 OA
ATOM     21  O4  <0> d  11       1.240   2.137 -24.257  0.00  0.00    -0.648 OA
ENDBRANCH  18  19
ENDBRANCH   8  18
TORSDOF 3
ENDMDL
