REMARK INTER + INTRA:          -7.271
REMARK INTER:                  -5.786
REMARK INTRA:                  -1.485
REMARK UNBOUND:                -1.792
REMARK  4 active torsions:
REMARK  status: ('A' for Active; 'I' for Inactive)
REMARK    1  A    between atoms: C4_4  and  N1_25 
REMARK    2  A    between atoms: C8_8  and  C16_16 
REMARK    3  A    between atoms: C9_9  and  C10_10 
REMARK    4  A    between atoms: C16_16  and  C17_17 
ROOT
ATOM      1  C7  <0> d  11       1.535  -0.550 -19.088  0.00  0.00     0.271 A 
ATOM      2  C8  <0> d  11       2.398  -1.104 -18.121  0.00  0.00     0.044 A 
ATOM      3  C9  <0> d  11       3.510  -1.563 -18.763  0.00  0.00     0.070 A 
ATOM      4  H1  <0> d  11       3.995  -1.538 -20.804  0.00  0.00     0.187 HD
ATOM      5  N1  <0> d  11       2.123  -0.680 -20.294  0.00  0.00    -0.252 N 
ATOM      6  N2  <0> d  11       3.357  -1.316 -20.108  0.00  0.00    -0.294 N 
ATOM      7  O1  <0> d  11       0.449  -0.041 -18.871  0.00  0.00    -0.266 OA
ENDROOT
BRANCH   5   8
ATOM      8  C4  <0> d  11       1.567  -0.237 -21.575  0.00  0.00     0.115 C 
ATOM      9  C3  <0> d  11       1.994   1.208 -21.846  0.00  0.00     0.055 C 
ATOM     10  C2  <0> d  11       1.462   1.645 -23.212  0.00  0.00     0.236 C 
ATOM     11  N3  <0> d  11       2.022   0.757 -24.252  0.00  0.00    -0.075 N 
ATOM     12  C1  <0> d  11       1.613   1.227 -25.592  0.00  0.00     0.269 C 
ATOM     13  C6  <0> d  11       1.554  -0.630 -24.040  0.00  0.00     0.236 C 
ATOM     14  H26 <0> d  11       3.047   0.776 -24.190  0.00  0.00     0.279 HD
ATOM     15  C5  <0> d  11       2.091  -1.135 -22.699  0.00  0.00     0.055 C 
ENDBRANCH   5   8
BRANCH   3  16
ATOM     16  C10 <0> d  11       4.674  -2.214 -18.126  0.00  0.00    -0.007 A 
ATOM     17  C15 <0> d  11       4.626  -3.570 -17.798  0.00  0.00     0.014 A 
ATOM     18  C14 <0> d  11       5.715  -4.172 -17.204  0.00  0.00     0.001 A 
ATOM     19  C13 <0> d  11       6.854  -3.433 -16.931  0.00  0.00     0.000 A 
ATOM     20  C12 <0> d  11       6.909  -2.089 -17.254  0.00  0.00     0.001 A 
ATOM     21  C11 <0> d  11       5.827  -1.477 -17.854  0.00  0.00     0.014 A 
ENDBRANCH   3  16
BRANCH   2  22
ATOM     22  C16 <0> d  11       2.140  -1.174 -16.638  0.00  0.00     0.085 C 
BRANCH  22  23
ATOM     23  C17 <0> d  11       2.989  -0.149 -15.932  0.00  0.00    -0.054 A 
ATOM     24  C22 <0> d  11       3.417  -0.376 -14.638  0.00  0.00     0.007 A 
ATOM     25  C21 <0> d  11       4.197   0.564 -13.991  0.00  0.00     0.001 A 
ATOM     26  C20 <0> d  11       4.549   1.733 -14.641  0.00  0.00     0.000 A 
ATOM     27  C19 <0> d  11       4.125   1.959 -15.936  0.00  0.00     0.001 A 
ATOM     28  C18 <0> d  11       3.341   1.021 -16.581  0.00  0.00     0.007 A 
ENDBRANCH  22  23
ENDBRANCH   2  22
TORSDOF 4
ENDMDL
