REMARK INTER + INTRA:          -4.574
REMARK INTER:                  -4.463
REMARK INTRA:                  -0.112
REMARK UNBOUND:                -0.112
REMARK  3 active torsions:
REMARK  status: ('A' for Active; 'I' for Inactive)
REMARK    1  A    between atoms: C3_3  and  S1_15 
REMARK    2  A    between atoms: C6_6  and  C7_7 
REMARK    3  A    between atoms: S1_15  and  N1_10 
ROOT
ATOM      1  C1  <0> d  11       1.776  -0.383 -22.237  0.00  0.00     0.020 A 
ATOM      2  C2  <0> d  11       1.619  -1.132 -21.089  0.00  0.00     0.026 A 
ATOM      3  C3  <0> d  11       1.110  -0.549 -19.943  0.00  0.00     0.079 A 
ATOM      4  C4  <0> d  11       0.760   0.790 -19.937  0.00  0.00     0.026 A 
ATOM      5  C5  <0> d  11       0.917   1.553 -21.075  0.00  0.00     0.020 A 
ATOM      6  C6  <0> d  11       1.430   0.970 -22.235  0.00  0.00     0.040 A 
ENDROOT
BRANCH   3   7
ATOM      7  S1  <0> d  11       0.906  -1.515 -18.484  0.00  0.00     0.256 S 
ATOM      8  O2  <0> d  11       1.180  -2.862 -18.847  0.00  0.00    -0.201 OA
ATOM      9  O3  <0> d  11       1.615  -0.846 -17.449  0.00  0.00    -0.201 OA
BRANCH   7  10
ATOM     10  N1  <0> d  11      -0.697  -1.452 -18.076  0.00  0.00    -0.324 N 
ATOM     11  H5  <0> d  11      -0.960  -1.180 -17.182  0.00  0.00     0.169 HD
ATOM     12  H6  <0> d  11      -1.374  -1.686 -18.730  0.00  0.00     0.169 HD
ENDBRANCH   7  10
ENDBRANCH   3   7
BRANCH   6  13
ATOM     13  C7  <0> d  11       1.602   1.781 -23.459  0.00  0.00     0.209 C 
ATOM     14  O1  <0> d  11       1.712   2.988 -23.377  0.00  0.00    -0.644 OA
ATOM     15  O4  <0> d  11       1.639   1.182 -24.665  0.00  0.00    -0.644 OA
ENDBRANCH   6  13
TORSDOF 3
ENDMDL
