REMARK INTER + INTRA:          -7.250
REMARK INTER:                  -5.720
REMARK INTRA:                  -1.531
REMARK UNBOUND:                -1.751
REMARK  4 active torsions:
REMARK  status: ('A' for Active; 'I' for Inactive)
REMARK    1  A    between atoms: C4_4  and  N1_25 
REMARK    2  A    between atoms: C8_8  and  C16_16 
REMARK    3  A    between atoms: C9_9  and  C10_10 
REMARK    4  A    between atoms: C16_16  and  C17_17 
ROOT
ATOM      1  C7  <0> d  11       1.494  -0.492 -19.126  0.00  0.00     0.271 A 
ATOM      2  C8  <0> d  11       2.304  -1.118 -18.158  0.00  0.00     0.044 A 
ATOM      3  C9  <0> d  11       3.361  -1.692 -18.800  0.00  0.00     0.070 A 
ATOM      4  H1  <0> d  11       3.831  -1.739 -20.844  0.00  0.00     0.187 HD
ATOM      5  N1  <0> d  11       2.057  -0.694 -20.333  0.00  0.00    -0.252 N 
ATOM      6  N2  <0> d  11       3.224  -1.446 -20.147  0.00  0.00    -0.294 N 
ATOM      7  O1  <0> d  11       0.465   0.124 -18.909  0.00  0.00    -0.266 OA
ENDROOT
BRANCH   5   8
ATOM      8  C4  <0> d  11       1.539  -0.212 -21.617  0.00  0.00     0.115 C 
ATOM      9  C3  <0> d  11       1.987   1.236 -21.837  0.00  0.00     0.055 C 
ATOM     10  C2  <0> d  11       1.495   1.713 -23.205  0.00  0.00     0.236 C 
ATOM     11  N3  <0> d  11       2.075   0.847 -24.254  0.00  0.00    -0.075 N 
ATOM     12  C1  <0> d  11       1.706   1.357 -25.591  0.00  0.00     0.269 C 
ATOM     13  C6  <0> d  11       1.590  -0.540 -24.091  0.00  0.00     0.236 C 
ATOM     14  H26 <0> d  11       3.098   0.854 -24.164  0.00  0.00     0.279 HD
ATOM     15  C5  <0> d  11       2.085  -1.085 -22.750  0.00  0.00     0.055 C 
ENDBRANCH   5   8
BRANCH   3  16
ATOM     16  C10 <0> d  11       4.459  -2.448 -18.162  0.00  0.00    -0.007 A 
ATOM     17  C15 <0> d  11       4.307  -3.809 -17.890  0.00  0.00     0.014 A 
ATOM     18  C14 <0> d  11       5.336  -4.508 -17.294  0.00  0.00     0.001 A 
ATOM     19  C13 <0> d  11       6.516  -3.864 -16.966  0.00  0.00     0.000 A 
ATOM     20  C12 <0> d  11       6.673  -2.515 -17.234  0.00  0.00     0.001 A 
ATOM     21  C11 <0> d  11       5.654  -1.805 -17.835  0.00  0.00     0.014 A 
ENDBRANCH   3  16
BRANCH   2  22
ATOM     22  C16 <0> d  11       2.051  -1.145 -16.672  0.00  0.00     0.085 C 
BRANCH  22  23
ATOM     23  C17 <0> d  11       2.987  -0.184 -15.986  0.00  0.00    -0.054 A 
ATOM     24  C22 <0> d  11       3.464  -0.468 -14.720  0.00  0.00     0.007 A 
ATOM     25  C21 <0> d  11       4.323   0.413 -14.091  0.00  0.00     0.001 A 
ATOM     26  C20 <0> d  11       4.707   1.577 -14.728  0.00  0.00     0.000 A 
ATOM     27  C19 <0> d  11       4.234   1.860 -15.997  0.00  0.00     0.001 A 
ATOM     28  C18 <0> d  11       3.371   0.981 -16.624  0.00  0.00     0.007 A 
ENDBRANCH  22  23
ENDBRANCH   2  22
TORSDOF 4
ENDMDL
