REMARK INTER + INTRA:          -5.456
REMARK INTER:                  -4.827
REMARK INTRA:                  -0.629
REMARK UNBOUND:                -0.441
REMARK  2 active torsions:
REMARK  status: ('A' for Active; 'I' for Inactive)
REMARK    1  A    between atoms: C4_4  and  C6_6 
REMARK    2  A    between atoms: C6_6  and  N1_20 
ROOT
ATOM      1  C7  <0> d  11       3.662   1.052 -16.152  0.00  0.00     0.052 A 
ATOM      2  C8  <0> d  11       3.789   0.804 -14.794  0.00  0.00     0.031 A 
ATOM      3  C9  <0> d  11       4.357   1.756 -13.967  0.00  0.00     0.002 A 
ATOM      4  C10 <0> d  11       4.800   2.958 -14.485  0.00  0.00     0.002 A 
ATOM      5  C11 <0> d  11       4.679   3.217 -15.841  0.00  0.00     0.021 A 
ATOM      6  C12 <0> d  11       4.113   2.269 -16.670  0.00  0.00     0.032 A 
ATOM      7  C13 <0> d  11       2.533   1.594 -18.819  0.00  0.00     0.032 A 
ATOM      8  C14 <0> d  11       2.256   0.452 -18.061  0.00  0.00     0.052 A 
ATOM      9  C15 <0> d  11       1.151  -0.322 -18.379  0.00  0.00     0.031 A 
ATOM     10  C16 <0> d  11       0.335   0.040 -19.436  0.00  0.00     0.002 A 
ATOM     11  C17 <0> d  11       0.613   1.170 -20.182  0.00  0.00     0.002 A 
ATOM     12  C18 <0> d  11       1.715   1.950 -19.873  0.00  0.00     0.021 A 
ATOM     13  N1  <0> d  11       3.086   0.094 -16.993  0.00  0.00    -0.344 N 
ATOM     14  S1  <0> d  11       3.945   2.569 -18.402  0.00  0.00    -0.086 SA
ENDROOT
BRANCH  13  15
ATOM     15  C6  <0> d  11       3.358  -1.325 -16.749  0.00  0.00     0.136 C 
BRANCH  15  16
ATOM     16  C4  <0> d  11       4.398  -1.825 -17.753  0.00  0.00     0.031 C 
ATOM     17  C3  <0> d  11       5.731  -2.167 -17.036  0.00  0.00     0.035 C 
ATOM     18  C2  <0> d  11       6.338  -3.223 -17.994  0.00  0.00     0.234 C 
ATOM     19  N2  <0> d  11       5.178  -4.013 -18.451  0.00  0.00    -0.074 N 
ATOM     20  C1  <0> d  11       5.383  -4.457 -19.855  0.00  0.00     0.269 C 
ATOM     21  C5  <0> d  11       3.968  -3.181 -18.352  0.00  0.00     0.240 C 
ATOM     22  H21 <0> d  11       5.072  -4.839 -17.850  0.00  0.00     0.279 HD
ENDBRANCH  15  16
ENDBRANCH  13  15
TORSDOF 2
ENDMDL
