MODEL 1
REMARK VINA RESULT:    -8.496      0.000      0.000
REMARK INTER + INTRA:          -9.189
REMARK INTER:                  -9.650
REMARK INTRA:                   0.461
REMARK UNBOUND:                -0.196
REMARK  1 active torsions:
REMARK  status: ('A' for Active; 'I' for Inactive)
REMARK    1  A    between atoms: C7_7  and  C4_4 
ROOT
ATOM      1  C1  LG1 d5015      21.553   5.811  73.628  0.00  0.00    -0.004 C 
ATOM      2  C2  LG1 d5015      20.939   4.408  73.584  0.00  0.00    -0.001 C 
ATOM      3  C3  LG1 d5015      21.967   3.275  73.954  0.00  0.00    -0.030 C 
ATOM      4  C4  LG1 d5015      20.997   2.048  73.888  0.00  0.00     0.063 C 
ATOM      5  C5  LG1 d5015      19.652   2.561  74.512  0.00  0.00     0.013 C 
ATOM      6  C6  LG1 d5015      19.720   4.131  74.497  0.00  0.00     0.006 C 
ATOM      7  C9  LG1 d5015      22.548   3.412  75.406  0.00  0.00     0.016 C 
ATOM      8  C10 LG1 d5015      23.064   3.326  72.867  0.00  0.00     0.011 C 
ATOM      9  C11 LG1 d5015      23.740   4.725  72.817  0.00  0.00     0.007 C 
ATOM     10  C12 LG1 d5015      22.714   5.864  72.581  0.00  0.00     0.002 C 
ATOM     11  C13 LG1 d5015      23.418   7.270  72.518  0.00  0.00    -0.016 C 
ATOM     12  C14 LG1 d5015      22.310   8.378  72.294  0.00  0.00    -0.068 C 
ATOM     13  C15 LG1 d5015      22.410   9.344  71.399  0.00  0.00     0.053 C 
ATOM     14  C16 LG1 d5015      23.622   9.540  70.619  0.00  0.00     0.149 C 
ATOM     15  C17 LG1 d5015      24.854   8.683  70.893  0.00  0.00     0.084 C 
ATOM     16  C18 LG1 d5015      24.410   7.263  71.324  0.00  0.00     0.022 C 
ATOM     17  O2  LG1 d5015      23.689  10.453  69.777  0.00  0.00    -0.293 OA
ATOM     18  C19 LG1 d5015      21.047   8.297  73.144  0.00  0.00     0.035 C 
ATOM     19  C20 LG1 d5015      20.488   6.864  73.228  0.00  0.00     0.010 C 
ATOM     20  C21 LG1 d5015      24.151   7.641  73.864  0.00  0.00     0.020 C 
ENDROOT
BRANCH   4  21
ATOM     21  C7  LG1 d5015      21.550   0.753  74.505  0.00  0.00     0.128 C 
ATOM     22  O1  LG1 d5015      22.032   0.764  75.618  0.00  0.00    -0.298 OA
ATOM     23  C8  LG1 d5015      21.483  -0.516  73.728  0.00  0.00     0.091 C 
ENDBRANCH   4  21
TORSDOF 1
ENDMDL
MODEL 2
REMARK VINA RESULT:    -7.451      1.396      6.896
REMARK INTER + INTRA:          -8.082
REMARK INTER:                  -7.941
REMARK INTRA:                  -0.141
REMARK UNBOUND:                -0.196
REMARK  1 active torsions:
REMARK  status: ('A' for Active; 'I' for Inactive)
REMARK    1  A    between atoms: C7_7  and  C4_4 
ROOT
ATOM      1  C1  LG1 d5015      21.629   5.783  73.160  0.00  0.00    -0.004 C 
ATOM      2  C2  LG1 d5015      22.066   7.233  72.924  0.00  0.00    -0.001 C 
ATOM      3  C3  LG1 d5015      23.415   7.345  72.121  0.00  0.00    -0.030 C 
ATOM      4  C4  LG1 d5015      23.488   8.904  72.004  0.00  0.00     0.063 C 
ATOM      5  C5  LG1 d5015      22.010   9.361  71.742  0.00  0.00     0.013 C 
ATOM      6  C6  LG1 d5015      21.088   8.158  72.159  0.00  0.00     0.006 C 
ATOM      7  C9  LG1 d5015      23.342   6.711  70.688  0.00  0.00     0.016 C 
ATOM      8  C10 LG1 d5015      24.492   6.684  73.010  0.00  0.00     0.011 C 
ATOM      9  C11 LG1 d5015      24.131   5.206  73.325  0.00  0.00     0.007 C 
ATOM     10  C12 LG1 d5015      22.741   5.074  74.001  0.00  0.00     0.002 C 
ATOM     11  C13 LG1 d5015      22.399   3.573  74.327  0.00  0.00    -0.016 C 
ATOM     12  C14 LG1 d5015      20.965   3.517  74.995  0.00  0.00    -0.068 C 
ATOM     13  C15 LG1 d5015      20.692   2.828  76.089  0.00  0.00     0.053 C 
ATOM     14  C16 LG1 d5015      21.677   1.952  76.705  0.00  0.00     0.149 C 
ATOM     15  C17 LG1 d5015      23.031   1.735  76.037  0.00  0.00     0.084 C 
ATOM     16  C18 LG1 d5015      23.467   3.036  75.318  0.00  0.00     0.022 C 
ATOM     17  O2  LG1 d5015      21.398   1.318  77.738  0.00  0.00    -0.293 OA
ATOM     18  C19 LG1 d5015      19.851   4.335  74.350  0.00  0.00     0.035 C 
ATOM     19  C20 LG1 d5015      20.311   5.757  73.976  0.00  0.00     0.010 C 
ATOM     20  C21 LG1 d5015      22.321   2.675  73.034  0.00  0.00     0.020 C 
ENDROOT
BRANCH   4  21
ATOM     21  C7  LG1 d5015      24.522   9.429  70.994  0.00  0.00     0.128 C 
ATOM     22  O1  LG1 d5015      24.168   9.792  69.892  0.00  0.00    -0.298 OA
ATOM     23  C8  LG1 d5015      25.958   9.496  71.382  0.00  0.00     0.091 C 
ENDBRANCH   4  21
TORSDOF 1
ENDMDL
MODEL 3
REMARK VINA RESULT:    -7.298      1.104      7.199
REMARK INTER + INTRA:          -7.921
REMARK INTER:                  -8.467
REMARK INTRA:                   0.546
REMARK UNBOUND:                -0.196
REMARK  1 active torsions:
REMARK  status: ('A' for Active; 'I' for Inactive)
REMARK    1  A    between atoms: C7_7  and  C4_4 
ROOT
ATOM      1  C1  LG1 d5015      23.118   5.143  73.029  0.00  0.00    -0.004 C 
ATOM      2  C2  LG1 d5015      23.315   6.183  71.921  0.00  0.00    -0.001 C 
ATOM      3  C3  LG1 d5015      22.763   7.605  72.308  0.00  0.00    -0.030 C 
ATOM      4  C4  LG1 d5015      23.203   8.385  71.024  0.00  0.00     0.063 C 
ATOM      5  C5  LG1 d5015      24.621   7.813  70.668  0.00  0.00     0.013 C 
ATOM      6  C6  LG1 d5015      24.763   6.453  71.442  0.00  0.00     0.006 C 
ATOM      7  C9  LG1 d5015      23.465   8.224  73.568  0.00  0.00     0.016 C 
ATOM      8  C10 LG1 d5015      21.240   7.430  72.502  0.00  0.00     0.011 C 
ATOM      9  C11 LG1 d5015      20.932   6.374  73.599  0.00  0.00     0.007 C 
ATOM     10  C12 LG1 d5015      21.582   5.000  73.289  0.00  0.00     0.002 C 
ATOM     11  C13 LG1 d5015      21.246   3.939  74.402  0.00  0.00    -0.016 C 
ATOM     12  C14 LG1 d5015      21.956   2.575  74.028  0.00  0.00    -0.068 C 
ATOM     13  C15 LG1 d5015      21.352   1.401  74.060  0.00  0.00     0.053 C 
ATOM     14  C16 LG1 d5015      19.997   1.254  74.570  0.00  0.00     0.149 C 
ATOM     15  C17 LG1 d5015      19.273   2.453  75.175  0.00  0.00     0.084 C 
ATOM     16  C18 LG1 d5015      19.707   3.743  74.437  0.00  0.00     0.022 C 
ATOM     17  O2  LG1 d5015      19.447   0.138  74.584  0.00  0.00    -0.293 OA
ATOM     18  C19 LG1 d5015      23.411   2.635  73.575  0.00  0.00     0.035 C 
ATOM     19  C20 LG1 d5015      23.662   3.769  72.562  0.00  0.00     0.010 C 
ATOM     20  C21 LG1 d5015      21.799   4.352  75.820  0.00  0.00     0.020 C 
ENDROOT
BRANCH   4  21
ATOM     21  C7  LG1 d5015      23.127   9.916  71.139  0.00  0.00     0.128 C 
ATOM     22  O1  LG1 d5015      23.799  10.616  70.411  0.00  0.00    -0.298 OA
ATOM     23  C8  LG1 d5015      22.218  10.532  72.145  0.00  0.00     0.091 C 
ENDBRANCH   4  21
TORSDOF 1
ENDMDL
MODEL 4
REMARK VINA RESULT:    -6.673      2.333      7.738
REMARK INTER + INTRA:          -7.259
REMARK INTER:                  -7.057
REMARK INTRA:                  -0.202
REMARK UNBOUND:                -0.196
REMARK  1 active torsions:
REMARK  status: ('A' for Active; 'I' for Inactive)
REMARK    1  A    between atoms: C7_7  and  C4_4 
ROOT
ATOM      1  C1  LG1 d5015      21.559   2.644  75.038  0.00  0.00    -0.004 C 
ATOM      2  C2  LG1 d5015      22.369   3.241  73.882  0.00  0.00    -0.001 C 
ATOM      3  C3  LG1 d5015      21.973   4.730  73.559  0.00  0.00    -0.030 C 
ATOM      4  C4  LG1 d5015      23.026   5.013  72.436  0.00  0.00     0.063 C 
ATOM      5  C5  LG1 d5015      24.338   4.304  72.921  0.00  0.00     0.013 C 
ATOM      6  C6  LG1 d5015      23.910   3.280  74.033  0.00  0.00     0.006 C 
ATOM      7  C9  LG1 d5015      22.207   5.712  74.761  0.00  0.00     0.016 C 
ATOM      8  C10 LG1 d5015      20.497   4.687  73.105  0.00  0.00     0.011 C 
ATOM      9  C11 LG1 d5015      19.589   4.075  74.207  0.00  0.00     0.007 C 
ATOM     10  C12 LG1 d5015      20.050   2.654  74.626  0.00  0.00     0.002 C 
ATOM     11  C13 LG1 d5015      19.110   2.044  75.730  0.00  0.00    -0.016 C 
ATOM     12  C14 LG1 d5015      19.652   0.609  76.117  0.00  0.00    -0.068 C 
ATOM     13  C15 LG1 d5015      18.886  -0.462  76.217  0.00  0.00     0.053 C 
ATOM     14  C16 LG1 d5015      17.438  -0.379  76.098  0.00  0.00     0.149 C 
ATOM     15  C17 LG1 d5015      16.760   0.980  75.949  0.00  0.00     0.084 C 
ATOM     16  C18 LG1 d5015      17.679   1.929  75.140  0.00  0.00     0.022 C 
ATOM     17  O2  LG1 d5015      16.738  -1.403  76.190  0.00  0.00    -0.293 OA
ATOM     18  C19 LG1 d5015      21.151   0.459  76.354  0.00  0.00     0.035 C 
ATOM     19  C20 LG1 d5015      21.988   1.174  75.275  0.00  0.00     0.010 C 
ATOM     20  C21 LG1 d5015      19.109   2.892  77.060  0.00  0.00     0.020 C 
ENDROOT
BRANCH   4  21
ATOM     21  C7  LG1 d5015      23.187   6.496  72.059  0.00  0.00     0.128 C 
ATOM     22  O1  LG1 d5015      22.262   7.103  71.562  0.00  0.00    -0.298 OA
ATOM     23  C8  LG1 d5015      24.484   7.181  72.316  0.00  0.00     0.091 C 
ENDBRANCH   4  21
TORSDOF 1
ENDMDL
MODEL 5
REMARK VINA RESULT:    -6.418      2.085      7.536
REMARK INTER + INTRA:          -6.989
REMARK INTER:                  -6.793
REMARK INTRA:                  -0.196
REMARK UNBOUND:                -0.196
REMARK  1 active torsions:
REMARK  status: ('A' for Active; 'I' for Inactive)
REMARK    1  A    between atoms: C7_7  and  C4_4 
ROOT
ATOM      1  C1  LG1 d5015      20.463   3.062  74.104  0.00  0.00    -0.004 C 
ATOM      2  C2  LG1 d5015      20.820   4.552  74.117  0.00  0.00    -0.001 C 
ATOM      3  C3  LG1 d5015      22.268   4.842  73.571  0.00  0.00    -0.030 C 
ATOM      4  C4  LG1 d5015      22.239   6.405  73.651  0.00  0.00     0.063 C 
ATOM      5  C5  LG1 d5015      20.791   6.808  73.200  0.00  0.00     0.013 C 
ATOM      6  C6  LG1 d5015      19.910   5.512  73.313  0.00  0.00     0.006 C 
ATOM      7  C9  LG1 d5015      22.473   4.394  72.081  0.00  0.00     0.016 C 
ATOM      8  C10 LG1 d5015      23.237   4.134  74.544  0.00  0.00     0.011 C 
ATOM      9  C11 LG1 d5015      22.943   2.610  74.619  0.00  0.00     0.007 C 
ATOM     10  C12 LG1 d5015      21.478   2.314  75.031  0.00  0.00     0.002 C 
ATOM     11  C13 LG1 d5015      21.203   0.767  75.117  0.00  0.00    -0.016 C 
ATOM     12  C14 LG1 d5015      19.690   0.546  75.523  0.00  0.00    -0.068 C 
ATOM     13  C15 LG1 d5015      19.299  -0.292  76.467  0.00  0.00     0.053 C 
ATOM     14  C16 LG1 d5015      20.237  -1.183  77.132  0.00  0.00     0.149 C 
ATOM     15  C17 LG1 d5015      21.693  -1.236  76.681  0.00  0.00     0.084 C 
ATOM     16  C18 LG1 d5015      22.137   0.168  76.203  0.00  0.00     0.022 C 
ATOM     17  O2  LG1 d5015      19.846  -1.959  78.022  0.00  0.00    -0.293 OA
ATOM     18  C19 LG1 d5015      18.634   1.376  74.801  0.00  0.00     0.035 C 
ATOM     19  C20 LG1 d5015      19.038   2.858  74.678  0.00  0.00     0.010 C 
ATOM     20  C21 LG1 d5015      21.402   0.039  73.733  0.00  0.00     0.020 C 
ENDROOT
BRANCH   4  21
ATOM     21  C7  LG1 d5015      23.378   7.112  72.898  0.00  0.00     0.128 C 
ATOM     22  O1  LG1 d5015      24.531   6.933  73.227  0.00  0.00    -0.298 OA
ATOM     23  C8  LG1 d5015      23.054   8.013  71.757  0.00  0.00     0.091 C 
ENDBRANCH   4  21
TORSDOF 1
ENDMDL
