REMARK INTER + INTRA:          -7.242
REMARK INTER:                  -7.042
REMARK INTRA:                  -0.200
REMARK UNBOUND:                -0.162
REMARK  1 active torsions:
REMARK  status: ('A' for Active; 'I' for Inactive)
REMARK    1  A    between atoms: C7_7  and  C4_4 
ROOT
ATOM      1  C1  LG1 d5015      21.552   2.632  75.039  0.00  0.00    -0.004 C 
ATOM      2  C2  LG1 d5015      22.341   3.251  73.880  0.00  0.00    -0.001 C 
ATOM      3  C3  LG1 d5015      21.917   4.735  73.572  0.00  0.00    -0.030 C 
ATOM      4  C4  LG1 d5015      22.953   5.044  72.440  0.00  0.00     0.063 C 
ATOM      5  C5  LG1 d5015      24.282   4.353  72.907  0.00  0.00     0.013 C 
ATOM      6  C6  LG1 d5015      23.882   3.314  74.016  0.00  0.00     0.006 C 
ATOM      7  C9  LG1 d5015      22.147   5.712  74.779  0.00  0.00     0.016 C 
ATOM      8  C10 LG1 d5015      20.438   4.670  73.132  0.00  0.00     0.011 C 
ATOM      9  C11 LG1 d5015      19.550   4.036  74.239  0.00  0.00     0.007 C 
ATOM     10  C12 LG1 d5015      20.039   2.620  74.642  0.00  0.00     0.002 C 
ATOM     11  C13 LG1 d5015      19.120   1.987  75.751  0.00  0.00    -0.016 C 
ATOM     12  C14 LG1 d5015      19.690   0.558  76.123  0.00  0.00    -0.068 C 
ATOM     13  C15 LG1 d5015      18.943  -0.526  76.223  0.00  0.00     0.053 C 
ATOM     14  C16 LG1 d5015      17.493  -0.466  76.118  0.00  0.00     0.149 C 
ATOM     15  C17 LG1 d5015      16.791   0.882  75.986  0.00  0.00     0.084 C 
ATOM     16  C18 LG1 d5015      17.686   1.852  75.175  0.00  0.00     0.022 C 
ATOM     17  O2  LG1 d5015      16.811  -1.502  76.209  0.00  0.00    -0.293 OA
ATOM     18  C19 LG1 d5015      21.194   0.431  76.343  0.00  0.00     0.035 C 
ATOM     19  C20 LG1 d5015      22.008   1.168  75.262  0.00  0.00     0.010 C 
ATOM     20  C21 LG1 d5015      19.119   2.824  77.087  0.00  0.00     0.020 C 
ENDROOT
BRANCH   4  21
ATOM     21  C7  LG1 d5015      23.086   6.531  72.072  0.00  0.00     0.128 C 
ATOM     22  O1  LG1 d5015      22.143   7.128  71.599  0.00  0.00    -0.298 OA
ATOM     23  C8  LG1 d5015      24.378   7.233  72.309  0.00  0.00     0.091 C 
ENDBRANCH   4  21
TORSDOF 1
ENDMDL
