REMARK INTER + INTRA:          -8.082
REMARK INTER:                  -7.941
REMARK INTRA:                  -0.141
REMARK UNBOUND:                -0.196
REMARK  1 active torsions:
REMARK  status: ('A' for Active; 'I' for Inactive)
REMARK    1  A    between atoms: C7_7  and  C4_4 
ROOT
ATOM      1  C1  LG1 d5015      21.629   5.783  73.160  0.00  0.00    -0.004 C 
ATOM      2  C2  LG1 d5015      22.066   7.233  72.924  0.00  0.00    -0.001 C 
ATOM      3  C3  LG1 d5015      23.415   7.345  72.121  0.00  0.00    -0.030 C 
ATOM      4  C4  LG1 d5015      23.488   8.904  72.004  0.00  0.00     0.063 C 
ATOM      5  C5  LG1 d5015      22.010   9.361  71.742  0.00  0.00     0.013 C 
ATOM      6  C6  LG1 d5015      21.088   8.158  72.159  0.00  0.00     0.006 C 
ATOM      7  C9  LG1 d5015      23.342   6.711  70.688  0.00  0.00     0.016 C 
ATOM      8  C10 LG1 d5015      24.492   6.684  73.010  0.00  0.00     0.011 C 
ATOM      9  C11 LG1 d5015      24.131   5.206  73.325  0.00  0.00     0.007 C 
ATOM     10  C12 LG1 d5015      22.741   5.074  74.001  0.00  0.00     0.002 C 
ATOM     11  C13 LG1 d5015      22.399   3.573  74.327  0.00  0.00    -0.016 C 
ATOM     12  C14 LG1 d5015      20.965   3.517  74.995  0.00  0.00    -0.068 C 
ATOM     13  C15 LG1 d5015      20.692   2.828  76.089  0.00  0.00     0.053 C 
ATOM     14  C16 LG1 d5015      21.677   1.952  76.705  0.00  0.00     0.149 C 
ATOM     15  C17 LG1 d5015      23.031   1.735  76.037  0.00  0.00     0.084 C 
ATOM     16  C18 LG1 d5015      23.467   3.036  75.318  0.00  0.00     0.022 C 
ATOM     17  O2  LG1 d5015      21.398   1.318  77.738  0.00  0.00    -0.293 OA
ATOM     18  C19 LG1 d5015      19.851   4.335  74.350  0.00  0.00     0.035 C 
ATOM     19  C20 LG1 d5015      20.311   5.757  73.976  0.00  0.00     0.010 C 
ATOM     20  C21 LG1 d5015      22.321   2.675  73.034  0.00  0.00     0.020 C 
ENDROOT
BRANCH   4  21
ATOM     21  C7  LG1 d5015      24.522   9.429  70.994  0.00  0.00     0.128 C 
ATOM     22  O1  LG1 d5015      24.168   9.792  69.892  0.00  0.00    -0.298 OA
ATOM     23  C8  LG1 d5015      25.958   9.496  71.382  0.00  0.00     0.091 C 
ENDBRANCH   4  21
TORSDOF 1
ENDMDL
