REMARK INTER + INTRA:          -9.221
REMARK INTER:                  -9.692
REMARK INTRA:                   0.470
REMARK UNBOUND:                -0.192
REMARK  1 active torsions:
REMARK  status: ('A' for Active; 'I' for Inactive)
REMARK    1  A    between atoms: C7_7  and  C4_4 
ROOT
ATOM      1  C1  LG1 d5015      21.613   5.824  73.583  0.00  0.00    -0.004 C 
ATOM      2  C2  LG1 d5015      20.989   4.425  73.532  0.00  0.00    -0.001 C 
ATOM      3  C3  LG1 d5015      22.016   3.282  73.875  0.00  0.00    -0.030 C 
ATOM      4  C4  LG1 d5015      21.038   2.062  73.811  0.00  0.00     0.063 C 
ATOM      5  C5  LG1 d5015      19.705   2.576  74.460  0.00  0.00     0.013 C 
ATOM      6  C6  LG1 d5015      19.783   4.145  74.461  0.00  0.00     0.006 C 
ATOM      7  C9  LG1 d5015      22.620   3.400  75.319  0.00  0.00     0.016 C 
ATOM      8  C10 LG1 d5015      23.097   3.339  72.773  0.00  0.00     0.011 C 
ATOM      9  C11 LG1 d5015      23.780   4.734  72.728  0.00  0.00     0.007 C 
ATOM     10  C12 LG1 d5015      22.758   5.882  72.519  0.00  0.00     0.002 C 
ATOM     11  C13 LG1 d5015      23.469   7.284  72.460  0.00  0.00    -0.016 C 
ATOM     12  C14 LG1 d5015      22.365   8.401  72.265  0.00  0.00    -0.068 C 
ATOM     13  C15 LG1 d5015      22.457   9.376  71.379  0.00  0.00     0.053 C 
ATOM     14  C16 LG1 d5015      23.659   9.573  70.584  0.00  0.00     0.149 C 
ATOM     15  C17 LG1 d5015      24.890   8.706  70.830  0.00  0.00     0.084 C 
ATOM     16  C18 LG1 d5015      24.443   7.284  71.252  0.00  0.00     0.022 C 
ATOM     17  O2  LG1 d5015      23.719  10.495  69.750  0.00  0.00    -0.293 OA
ATOM     18  C19 LG1 d5015      21.114   8.318  73.132  0.00  0.00     0.035 C 
ATOM     19  C20 LG1 d5015      20.548   6.887  73.209  0.00  0.00     0.010 C 
ATOM     20  C21 LG1 d5015      24.225   7.637  73.799  0.00  0.00     0.020 C 
ENDROOT
BRANCH   4  21
ATOM     21  C7  LG1 d5015      21.592   0.757  74.406  0.00  0.00     0.128 C 
ATOM     22  O1  LG1 d5015      22.108   0.757  75.503  0.00  0.00    -0.298 OA
ATOM     23  C8  LG1 d5015      21.484  -0.508  73.627  0.00  0.00     0.091 C 
ENDBRANCH   4  21
TORSDOF 1
ENDMDL
