REMARK INTER + INTRA:          -7.920
REMARK INTER:                  -8.474
REMARK INTRA:                   0.553
REMARK UNBOUND:                -0.139
REMARK  1 active torsions:
REMARK  status: ('A' for Active; 'I' for Inactive)
REMARK    1  A    between atoms: C7_7  and  C4_4 
ROOT
ATOM      1  C1  LG1 d5015      23.074   5.114  73.030  0.00  0.00    -0.004 C 
ATOM      2  C2  LG1 d5015      23.276   6.155  71.923  0.00  0.00    -0.001 C 
ATOM      3  C3  LG1 d5015      22.734   7.580  72.314  0.00  0.00    -0.030 C 
ATOM      4  C4  LG1 d5015      23.177   8.359  71.031  0.00  0.00     0.063 C 
ATOM      5  C5  LG1 d5015      24.590   7.779  70.672  0.00  0.00     0.013 C 
ATOM      6  C6  LG1 d5015      24.724   6.416  71.443  0.00  0.00     0.006 C 
ATOM      7  C9  LG1 d5015      23.442   8.192  73.574  0.00  0.00     0.016 C 
ATOM      8  C10 LG1 d5015      21.210   7.414  72.510  0.00  0.00     0.011 C 
ATOM      9  C11 LG1 d5015      20.897   6.358  73.605  0.00  0.00     0.007 C 
ATOM     10  C12 LG1 d5015      21.538   4.981  73.293  0.00  0.00     0.002 C 
ATOM     11  C13 LG1 d5015      21.197   3.920  74.404  0.00  0.00    -0.016 C 
ATOM     12  C14 LG1 d5015      21.897   2.552  74.026  0.00  0.00    -0.068 C 
ATOM     13  C15 LG1 d5015      21.285   1.382  74.057  0.00  0.00     0.053 C 
ATOM     14  C16 LG1 d5015      19.931   1.242  74.569  0.00  0.00     0.149 C 
ATOM     15  C17 LG1 d5015      19.215   2.445  75.177  0.00  0.00     0.084 C 
ATOM     16  C18 LG1 d5015      19.656   3.734  74.441  0.00  0.00     0.022 C 
ATOM     17  O2  LG1 d5015      19.373   0.130  74.582  0.00  0.00    -0.293 OA
ATOM     18  C19 LG1 d5015      23.352   2.603  73.571  0.00  0.00     0.035 C 
ATOM     19  C20 LG1 d5015      23.608   3.737  72.559  0.00  0.00     0.010 C 
ATOM     20  C21 LG1 d5015      21.754   4.327  75.821  0.00  0.00     0.020 C 
ENDROOT
BRANCH   4  21
ATOM     21  C7  LG1 d5015      23.111   9.891  71.149  0.00  0.00     0.128 C 
ATOM     22  O1  LG1 d5015      23.784  10.587  70.419  0.00  0.00    -0.298 OA
ATOM     23  C8  LG1 d5015      22.210  10.511  72.159  0.00  0.00     0.091 C 
ENDBRANCH   4  21
TORSDOF 1
ENDMDL
