REMARK INTER + INTRA:          -7.875
REMARK INTER:                  -8.411
REMARK INTRA:                   0.536
REMARK UNBOUND:                -0.176
REMARK  1 active torsions:
REMARK  status: ('A' for Active; 'I' for Inactive)
REMARK    1  A    between atoms: C7_7  and  C4_4 
ROOT
ATOM      1  C1  LG1 d5015      23.125   5.161  73.059  0.00  0.00    -0.004 C 
ATOM      2  C2  LG1 d5015      23.327   6.195  71.946  0.00  0.00    -0.001 C 
ATOM      3  C3  LG1 d5015      22.763   7.617  72.319  0.00  0.00    -0.030 C 
ATOM      4  C4  LG1 d5015      23.211   8.390  71.034  0.00  0.00     0.063 C 
ATOM      5  C5  LG1 d5015      24.635   7.825  70.695  0.00  0.00     0.013 C 
ATOM      6  C6  LG1 d5015      24.777   6.471  71.479  0.00  0.00     0.006 C 
ATOM      7  C9  LG1 d5015      23.450   8.248  73.581  0.00  0.00     0.016 C 
ATOM      8  C10 LG1 d5015      21.240   7.434  72.499  0.00  0.00     0.011 C 
ATOM      9  C11 LG1 d5015      20.927   6.383  73.600  0.00  0.00     0.007 C 
ATOM     10  C12 LG1 d5015      21.588   5.011  73.306  0.00  0.00     0.002 C 
ATOM     11  C13 LG1 d5015      21.248   3.955  74.422  0.00  0.00    -0.016 C 
ATOM     12  C14 LG1 d5015      21.969   2.593  74.064  0.00  0.00    -0.068 C 
ATOM     13  C15 LG1 d5015      21.371   1.416  74.098  0.00  0.00     0.053 C 
ATOM     14  C16 LG1 d5015      20.013   1.264  74.596  0.00  0.00     0.149 C 
ATOM     15  C17 LG1 d5015      19.276   2.463  75.186  0.00  0.00     0.084 C 
ATOM     16  C18 LG1 d5015      19.709   3.751  74.444  0.00  0.00     0.022 C 
ATOM     17  O2  LG1 d5015      19.469   0.145  74.612  0.00  0.00    -0.293 OA
ATOM     18  C19 LG1 d5015      23.428   2.659  73.624  0.00  0.00     0.035 C 
ATOM     19  C20 LG1 d5015      23.682   3.787  72.606  0.00  0.00     0.010 C 
ATOM     20  C21 LG1 d5015      21.785   4.381  75.842  0.00  0.00     0.020 C 
ENDROOT
BRANCH   4  21
ATOM     21  C7  LG1 d5015      23.125   9.922  71.138  0.00  0.00     0.128 C 
ATOM     22  O1  LG1 d5015      23.812  10.622  70.424  0.00  0.00    -0.298 OA
ATOM     23  C8  LG1 d5015      22.186  10.539  72.116  0.00  0.00     0.091 C 
ENDBRANCH   4  21
TORSDOF 1
ENDMDL
