REMARK INTER + INTRA:          -7.259
REMARK INTER:                  -7.057
REMARK INTRA:                  -0.202
REMARK UNBOUND:                -0.176
REMARK  1 active torsions:
REMARK  status: ('A' for Active; 'I' for Inactive)
REMARK    1  A    between atoms: C7_7  and  C4_4 
ROOT
ATOM      1  C1  LG1 d5015      21.561   2.685  75.054  0.00  0.00    -0.004 C 
ATOM      2  C2  LG1 d5015      22.389   3.272  73.905  0.00  0.00    -0.001 C 
ATOM      3  C3  LG1 d5015      21.981   4.750  73.547  0.00  0.00    -0.030 C 
ATOM      4  C4  LG1 d5015      23.054   5.027  72.442  0.00  0.00     0.063 C 
ATOM      5  C5  LG1 d5015      24.365   4.344  72.968  0.00  0.00     0.013 C 
ATOM      6  C6  LG1 d5015      23.924   3.334  74.090  0.00  0.00     0.006 C 
ATOM      7  C9  LG1 d5015      22.175   5.756  74.736  0.00  0.00     0.016 C 
ATOM      8  C10 LG1 d5015      20.516   4.679  73.062  0.00  0.00     0.011 C 
ATOM      9  C11 LG1 d5015      19.591   4.075  74.155  0.00  0.00     0.007 C 
ATOM     10  C12 LG1 d5015      20.061   2.668  74.609  0.00  0.00     0.002 C 
ATOM     11  C13 LG1 d5015      19.105   2.066  75.703  0.00  0.00    -0.016 C 
ATOM     12  C14 LG1 d5015      19.657   0.645  76.128  0.00  0.00    -0.068 C 
ATOM     13  C15 LG1 d5015      18.902  -0.434  76.231  0.00  0.00     0.053 C 
ATOM     14  C16 LG1 d5015      17.457  -0.372  76.079  0.00  0.00     0.149 C 
ATOM     15  C17 LG1 d5015      16.765   0.975  75.890  0.00  0.00     0.084 C 
ATOM     16  C18 LG1 d5015      17.689   1.921  75.084  0.00  0.00     0.022 C 
ATOM     17  O2  LG1 d5015      16.768  -1.404  76.173  0.00  0.00    -0.293 OA
ATOM     18  C19 LG1 d5015      21.152   0.519  76.400  0.00  0.00     0.035 C 
ATOM     19  C20 LG1 d5015      22.003   1.225  75.327  0.00  0.00     0.010 C 
ATOM     20  C21 LG1 d5015      19.064   2.937  77.017  0.00  0.00     0.020 C 
ENDROOT
BRANCH   4  21
ATOM     21  C7  LG1 d5015      23.204   6.504  72.042  0.00  0.00     0.128 C 
ATOM     22  O1  LG1 d5015      22.287   7.087  71.504  0.00  0.00    -0.298 OA
ATOM     23  C8  LG1 d5015      24.482   7.215  72.327  0.00  0.00     0.091 C 
ENDBRANCH   4  21
TORSDOF 1
ENDMDL
