MODEL 1
REMARK VINA RESULT:    -8.530      0.000      0.000
REMARK INTER + INTRA:          -9.221
REMARK INTER:                  -9.692
REMARK INTRA:                   0.470
REMARK UNBOUND:                -0.192
REMARK  1 active torsions:
REMARK  status: ('A' for Active; 'I' for Inactive)
REMARK    1  A    between atoms: C7_7  and  C4_4 
ROOT
ATOM      1  C1  LG1 d5015      21.613   5.824  73.583  0.00  0.00    -0.004 C 
ATOM      2  C2  LG1 d5015      20.989   4.425  73.532  0.00  0.00    -0.001 C 
ATOM      3  C3  LG1 d5015      22.016   3.282  73.875  0.00  0.00    -0.030 C 
ATOM      4  C4  LG1 d5015      21.038   2.062  73.811  0.00  0.00     0.063 C 
ATOM      5  C5  LG1 d5015      19.705   2.576  74.460  0.00  0.00     0.013 C 
ATOM      6  C6  LG1 d5015      19.783   4.145  74.461  0.00  0.00     0.006 C 
ATOM      7  C9  LG1 d5015      22.620   3.400  75.319  0.00  0.00     0.016 C 
ATOM      8  C10 LG1 d5015      23.097   3.339  72.773  0.00  0.00     0.011 C 
ATOM      9  C11 LG1 d5015      23.780   4.734  72.728  0.00  0.00     0.007 C 
ATOM     10  C12 LG1 d5015      22.758   5.882  72.519  0.00  0.00     0.002 C 
ATOM     11  C13 LG1 d5015      23.469   7.284  72.460  0.00  0.00    -0.016 C 
ATOM     12  C14 LG1 d5015      22.365   8.401  72.265  0.00  0.00    -0.068 C 
ATOM     13  C15 LG1 d5015      22.457   9.376  71.379  0.00  0.00     0.053 C 
ATOM     14  C16 LG1 d5015      23.659   9.573  70.584  0.00  0.00     0.149 C 
ATOM     15  C17 LG1 d5015      24.890   8.706  70.830  0.00  0.00     0.084 C 
ATOM     16  C18 LG1 d5015      24.443   7.284  71.252  0.00  0.00     0.022 C 
ATOM     17  O2  LG1 d5015      23.719  10.495  69.750  0.00  0.00    -0.293 OA
ATOM     18  C19 LG1 d5015      21.114   8.318  73.132  0.00  0.00     0.035 C 
ATOM     19  C20 LG1 d5015      20.548   6.887  73.209  0.00  0.00     0.010 C 
ATOM     20  C21 LG1 d5015      24.225   7.637  73.799  0.00  0.00     0.020 C 
ENDROOT
BRANCH   4  21
ATOM     21  C7  LG1 d5015      21.592   0.757  74.406  0.00  0.00     0.128 C 
ATOM     22  O1  LG1 d5015      22.108   0.757  75.503  0.00  0.00    -0.298 OA
ATOM     23  C8  LG1 d5015      21.484  -0.508  73.627  0.00  0.00     0.091 C 
ENDBRANCH   4  21
TORSDOF 1
ENDMDL
MODEL 2
REMARK VINA RESULT:    -7.446      1.404      6.896
REMARK INTER + INTRA:          -8.073
REMARK INTER:                  -7.932
REMARK INTRA:                  -0.141
REMARK UNBOUND:                -0.192
REMARK  1 active torsions:
REMARK  status: ('A' for Active; 'I' for Inactive)
REMARK    1  A    between atoms: C7_7  and  C4_4 
ROOT
ATOM      1  C1  LG1 d5015      21.631   5.784  73.152  0.00  0.00    -0.004 C 
ATOM      2  C2  LG1 d5015      22.071   7.233  72.919  0.00  0.00    -0.001 C 
ATOM      3  C3  LG1 d5015      23.422   7.343  72.119  0.00  0.00    -0.030 C 
ATOM      4  C4  LG1 d5015      23.499   8.902  72.003  0.00  0.00     0.063 C 
ATOM      5  C5  LG1 d5015      22.022   9.362  71.738  0.00  0.00     0.013 C 
ATOM      6  C6  LG1 d5015      21.097   8.161  72.152  0.00  0.00     0.006 C 
ATOM      7  C9  LG1 d5015      23.352   6.710  70.685  0.00  0.00     0.016 C 
ATOM      8  C10 LG1 d5015      24.496   6.680  73.010  0.00  0.00     0.011 C 
ATOM      9  C11 LG1 d5015      24.131   5.203  73.324  0.00  0.00     0.007 C 
ATOM     10  C12 LG1 d5015      22.740   5.072  73.996  0.00  0.00     0.002 C 
ATOM     11  C13 LG1 d5015      22.394   3.572  74.321  0.00  0.00    -0.016 C 
ATOM     12  C14 LG1 d5015      20.959   3.518  74.985  0.00  0.00    -0.068 C 
ATOM     13  C15 LG1 d5015      20.681   2.829  76.077  0.00  0.00     0.053 C 
ATOM     14  C16 LG1 d5015      21.663   1.951  76.696  0.00  0.00     0.149 C 
ATOM     15  C17 LG1 d5015      23.019   1.732  76.031  0.00  0.00     0.084 C 
ATOM     16  C18 LG1 d5015      23.458   3.033  75.314  0.00  0.00     0.022 C 
ATOM     17  O2  LG1 d5015      21.380   1.317  77.728  0.00  0.00    -0.293 OA
ATOM     18  C19 LG1 d5015      19.848   4.338  74.338  0.00  0.00     0.035 C 
ATOM     19  C20 LG1 d5015      20.311   5.760  73.965  0.00  0.00     0.010 C 
ATOM     20  C21 LG1 d5015      22.318   2.674  73.027  0.00  0.00     0.020 C 
ENDROOT
BRANCH   4  21
ATOM     21  C7  LG1 d5015      24.536   9.426  70.996  0.00  0.00     0.128 C 
ATOM     22  O1  LG1 d5015      24.186   9.790  69.894  0.00  0.00    -0.298 OA
ATOM     23  C8  LG1 d5015      25.971   9.490  71.387  0.00  0.00     0.091 C 
ENDBRANCH   4  21
TORSDOF 1
ENDMDL
MODEL 3
REMARK VINA RESULT:    -7.272      1.116      7.199
REMARK INTER + INTRA:          -7.890
REMARK INTER:                  -8.419
REMARK INTRA:                   0.529
REMARK UNBOUND:                -0.192
REMARK  1 active torsions:
REMARK  status: ('A' for Active; 'I' for Inactive)
REMARK    1  A    between atoms: C7_7  and  C4_4 
ROOT
ATOM      1  C1  LG1 d5015      23.127   5.160  73.046  0.00  0.00    -0.004 C 
ATOM      2  C2  LG1 d5015      23.332   6.198  71.937  0.00  0.00    -0.001 C 
ATOM      3  C3  LG1 d5015      22.782   7.622  72.320  0.00  0.00    -0.030 C 
ATOM      4  C4  LG1 d5015      23.230   8.398  71.037  0.00  0.00     0.063 C 
ATOM      5  C5  LG1 d5015      24.648   7.823  70.689  0.00  0.00     0.013 C 
ATOM      6  C6  LG1 d5015      24.783   6.464  71.466  0.00  0.00     0.006 C 
ATOM      7  C9  LG1 d5015      23.479   8.242  73.582  0.00  0.00     0.016 C 
ATOM      8  C10 LG1 d5015      21.258   7.451  72.506  0.00  0.00     0.011 C 
ATOM      9  C11 LG1 d5015      20.941   6.397  73.603  0.00  0.00     0.007 C 
ATOM     10  C12 LG1 d5015      21.590   5.021  73.300  0.00  0.00     0.002 C 
ATOM     11  C13 LG1 d5015      21.246   3.963  74.412  0.00  0.00    -0.016 C 
ATOM     12  C14 LG1 d5015      21.955   2.597  74.044  0.00  0.00    -0.068 C 
ATOM     13  C15 LG1 d5015      21.347   1.424  74.076  0.00  0.00     0.053 C 
ATOM     14  C16 LG1 d5015      19.990   1.281  74.579  0.00  0.00     0.149 C 
ATOM     15  C17 LG1 d5015      19.266   2.483  75.178  0.00  0.00     0.084 C 
ATOM     16  C18 LG1 d5015      19.706   3.771  74.440  0.00  0.00     0.022 C 
ATOM     17  O2  LG1 d5015      19.437   0.167  74.592  0.00  0.00    -0.293 OA
ATOM     18  C19 LG1 d5015      23.412   2.653  73.598  0.00  0.00     0.035 C 
ATOM     19  C20 LG1 d5015      23.670   3.784  72.584  0.00  0.00     0.010 C 
ATOM     20  C21 LG1 d5015      21.793   4.378  75.832  0.00  0.00     0.020 C 
ENDROOT
BRANCH   4  21
ATOM     21  C7  LG1 d5015      23.157   9.930  71.148  0.00  0.00     0.128 C 
ATOM     22  O1  LG1 d5015      23.848  10.627  70.437  0.00  0.00    -0.298 OA
ATOM     23  C8  LG1 d5015      22.226  10.551  72.131  0.00  0.00     0.091 C 
ENDBRANCH   4  21
TORSDOF 1
ENDMDL
MODEL 4
REMARK VINA RESULT:    -6.701      2.383      7.783
REMARK INTER + INTRA:          -7.285
REMARK INTER:                  -7.087
REMARK INTRA:                  -0.198
REMARK UNBOUND:                -0.192
REMARK  1 active torsions:
REMARK  status: ('A' for Active; 'I' for Inactive)
REMARK    1  A    between atoms: C7_7  and  C4_4 
ROOT
ATOM      1  C1  LG1 d5015      21.535   2.605  75.039  0.00  0.00    -0.004 C 
ATOM      2  C2  LG1 d5015      22.374   3.215  73.911  0.00  0.00    -0.001 C 
ATOM      3  C3  LG1 d5015      21.953   4.691  73.561  0.00  0.00    -0.030 C 
ATOM      4  C4  LG1 d5015      23.040   4.994  72.477  0.00  0.00     0.063 C 
ATOM      5  C5  LG1 d5015      24.351   4.322  73.017  0.00  0.00     0.013 C 
ATOM      6  C6  LG1 d5015      23.905   3.295  74.120  0.00  0.00     0.006 C 
ATOM      7  C9  LG1 d5015      22.115   5.686  74.764  0.00  0.00     0.016 C 
ATOM      8  C10 LG1 d5015      20.497   4.607  73.052  0.00  0.00     0.011 C 
ATOM      9  C11 LG1 d5015      19.562   3.979  74.123  0.00  0.00     0.007 C 
ATOM     10  C12 LG1 d5015      20.043   2.574  74.570  0.00  0.00     0.002 C 
ATOM     11  C13 LG1 d5015      19.077   1.947  75.642  0.00  0.00    -0.016 C 
ATOM     12  C14 LG1 d5015      19.641   0.529  76.061  0.00  0.00    -0.068 C 
ATOM     13  C15 LG1 d5015      18.899  -0.561  76.140  0.00  0.00     0.053 C 
ATOM     14  C16 LG1 d5015      17.455  -0.515  75.965  0.00  0.00     0.149 C 
ATOM     15  C17 LG1 d5015      16.749   0.824  75.780  0.00  0.00     0.084 C 
ATOM     16  C18 LG1 d5015      17.673   1.791  74.999  0.00  0.00     0.022 C 
ATOM     17  O2  LG1 d5015      16.778  -1.557  76.038  0.00  0.00    -0.293 OA
ATOM     18  C19 LG1 d5015      21.133   0.419  76.355  0.00  0.00     0.035 C 
ATOM     19  C20 LG1 d5015      21.992   1.148  75.304  0.00  0.00     0.010 C 
ATOM     20  C21 LG1 d5015      19.004   2.803  76.965  0.00  0.00     0.020 C 
ENDROOT
BRANCH   4  21
ATOM     21  C7  LG1 d5015      23.177   6.477  72.095  0.00  0.00     0.128 C 
ATOM     22  O1  LG1 d5015      22.249   7.063  71.581  0.00  0.00    -0.298 OA
ATOM     23  C8  LG1 d5015      24.456   7.189  72.368  0.00  0.00     0.091 C 
ENDBRANCH   4  21
TORSDOF 1
ENDMDL
MODEL 5
REMARK VINA RESULT:    -6.431      2.114      7.554
REMARK INTER + INTRA:          -6.999
REMARK INTER:                  -6.807
REMARK INTRA:                  -0.192
REMARK UNBOUND:                -0.192
REMARK  1 active torsions:
REMARK  status: ('A' for Active; 'I' for Inactive)
REMARK    1  A    between atoms: C7_7  and  C4_4 
ROOT
ATOM      1  C1  LG1 d5015      20.476   3.081  74.139  0.00  0.00    -0.004 C 
ATOM      2  C2  LG1 d5015      20.830   4.572  74.148  0.00  0.00    -0.001 C 
ATOM      3  C3  LG1 d5015      22.268   4.865  73.578  0.00  0.00    -0.030 C 
ATOM      4  C4  LG1 d5015      22.238   6.428  73.662  0.00  0.00     0.063 C 
ATOM      5  C5  LG1 d5015      20.782   6.829  73.236  0.00  0.00     0.013 C 
ATOM      6  C6  LG1 d5015      19.904   5.532  73.362  0.00  0.00     0.006 C 
ATOM      7  C9  LG1 d5015      22.448   4.419  72.084  0.00  0.00     0.016 C 
ATOM      8  C10 LG1 d5015      23.254   4.158  74.533  0.00  0.00     0.011 C 
ATOM      9  C11 LG1 d5015      22.965   2.633  74.611  0.00  0.00     0.007 C 
ATOM     10  C12 LG1 d5015      21.507   2.334  75.048  0.00  0.00     0.002 C 
ATOM     11  C13 LG1 d5015      21.237   0.786  75.136  0.00  0.00    -0.016 C 
ATOM     12  C14 LG1 d5015      19.731   0.561  75.568  0.00  0.00    -0.068 C 
ATOM     13  C15 LG1 d5015      19.358  -0.279  76.516  0.00  0.00     0.053 C 
ATOM     14  C16 LG1 d5015      20.308  -1.169  77.164  0.00  0.00     0.149 C 
ATOM     15  C17 LG1 d5015      21.757  -1.219  76.688  0.00  0.00     0.084 C 
ATOM     16  C18 LG1 d5015      22.190   0.187  76.205  0.00  0.00     0.022 C 
ATOM     17  O2  LG1 d5015      19.933  -1.947  78.060  0.00  0.00    -0.293 OA
ATOM     18  C19 LG1 d5015      18.662   1.391  74.865  0.00  0.00     0.035 C 
ATOM     19  C20 LG1 d5015      19.061   2.874  74.738  0.00  0.00     0.010 C 
ATOM     20  C21 LG1 d5015      21.413   0.061  73.747  0.00  0.00     0.020 C 
ENDROOT
BRANCH   4  21
ATOM     21  C7  LG1 d5015      23.362   7.138  72.890  0.00  0.00     0.128 C 
ATOM     22  O1  LG1 d5015      24.522   6.945  73.186  0.00  0.00    -0.298 OA
ATOM     23  C8  LG1 d5015      23.016   8.059  71.772  0.00  0.00     0.091 C 
ENDBRANCH   4  21
TORSDOF 1
ENDMDL
