REMARK INTER + INTRA:          -7.285
REMARK INTER:                  -7.087
REMARK INTRA:                  -0.198
REMARK UNBOUND:                -0.192
REMARK  1 active torsions:
REMARK  status: ('A' for Active; 'I' for Inactive)
REMARK    1  A    between atoms: C7_7  and  C4_4 
ROOT
ATOM      1  C1  LG1 d5015      21.535   2.605  75.039  0.00  0.00    -0.004 C 
ATOM      2  C2  LG1 d5015      22.374   3.215  73.911  0.00  0.00    -0.001 C 
ATOM      3  C3  LG1 d5015      21.953   4.691  73.561  0.00  0.00    -0.030 C 
ATOM      4  C4  LG1 d5015      23.040   4.994  72.477  0.00  0.00     0.063 C 
ATOM      5  C5  LG1 d5015      24.351   4.322  73.017  0.00  0.00     0.013 C 
ATOM      6  C6  LG1 d5015      23.905   3.295  74.120  0.00  0.00     0.006 C 
ATOM      7  C9  LG1 d5015      22.115   5.686  74.764  0.00  0.00     0.016 C 
ATOM      8  C10 LG1 d5015      20.497   4.607  73.052  0.00  0.00     0.011 C 
ATOM      9  C11 LG1 d5015      19.562   3.979  74.123  0.00  0.00     0.007 C 
ATOM     10  C12 LG1 d5015      20.043   2.574  74.570  0.00  0.00     0.002 C 
ATOM     11  C13 LG1 d5015      19.077   1.947  75.642  0.00  0.00    -0.016 C 
ATOM     12  C14 LG1 d5015      19.641   0.529  76.061  0.00  0.00    -0.068 C 
ATOM     13  C15 LG1 d5015      18.899  -0.561  76.140  0.00  0.00     0.053 C 
ATOM     14  C16 LG1 d5015      17.455  -0.515  75.965  0.00  0.00     0.149 C 
ATOM     15  C17 LG1 d5015      16.749   0.824  75.780  0.00  0.00     0.084 C 
ATOM     16  C18 LG1 d5015      17.673   1.791  74.999  0.00  0.00     0.022 C 
ATOM     17  O2  LG1 d5015      16.778  -1.557  76.038  0.00  0.00    -0.293 OA
ATOM     18  C19 LG1 d5015      21.133   0.419  76.355  0.00  0.00     0.035 C 
ATOM     19  C20 LG1 d5015      21.992   1.148  75.304  0.00  0.00     0.010 C 
ATOM     20  C21 LG1 d5015      19.004   2.803  76.965  0.00  0.00     0.020 C 
ENDROOT
BRANCH   4  21
ATOM     21  C7  LG1 d5015      23.177   6.477  72.095  0.00  0.00     0.128 C 
ATOM     22  O1  LG1 d5015      22.249   7.063  71.581  0.00  0.00    -0.298 OA
ATOM     23  C8  LG1 d5015      24.456   7.189  72.368  0.00  0.00     0.091 C 
ENDBRANCH   4  21
TORSDOF 1
ENDMDL
