REMARK INTER + INTRA:          -7.013
REMARK INTER:                  -6.837
REMARK INTRA:                  -0.176
REMARK UNBOUND:                -0.176
REMARK  1 active torsions:
REMARK  status: ('A' for Active; 'I' for Inactive)
REMARK    1  A    between atoms: C7_7  and  C4_4 
ROOT
ATOM      1  C1  LG1 d5015      20.448   3.046  74.095  0.00  0.00    -0.004 C 
ATOM      2  C2  LG1 d5015      20.789   4.540  74.127  0.00  0.00    -0.001 C 
ATOM      3  C3  LG1 d5015      22.235   4.852  73.589  0.00  0.00    -0.030 C 
ATOM      4  C4  LG1 d5015      22.190   6.413  73.689  0.00  0.00     0.063 C 
ATOM      5  C5  LG1 d5015      20.739   6.807  73.239  0.00  0.00     0.013 C 
ATOM      6  C6  LG1 d5015      19.871   5.500  73.333  0.00  0.00     0.006 C 
ATOM      7  C9  LG1 d5015      22.449   4.424  72.094  0.00  0.00     0.016 C 
ATOM      8  C10 LG1 d5015      23.209   4.143  74.556  0.00  0.00     0.011 C 
ATOM      9  C11 LG1 d5015      22.931   2.615  74.611  0.00  0.00     0.007 C 
ATOM     10  C12 LG1 d5015      21.468   2.298  75.016  0.00  0.00     0.002 C 
ATOM     11  C13 LG1 d5015      21.210   0.748  75.082  0.00  0.00    -0.016 C 
ATOM     12  C14 LG1 d5015      19.697   0.505  75.481  0.00  0.00    -0.068 C 
ATOM     13  C15 LG1 d5015      19.313  -0.349  76.413  0.00  0.00     0.053 C 
ATOM     14  C16 LG1 d5015      20.258  -1.238  77.070  0.00  0.00     0.149 C 
ATOM     15  C17 LG1 d5015      21.716  -1.270  76.622  0.00  0.00     0.084 C 
ATOM     16  C18 LG1 d5015      22.147   0.145  76.163  0.00  0.00     0.022 C 
ATOM     17  O2  LG1 d5015      19.873  -2.029  77.950  0.00  0.00    -0.293 OA
ATOM     18  C19 LG1 d5015      18.635   1.333  74.766  0.00  0.00     0.035 C 
ATOM     19  C20 LG1 d5015      19.024   2.820  74.663  0.00  0.00     0.010 C 
ATOM     20  C21 LG1 d5015      21.420   0.039  73.689  0.00  0.00     0.020 C 
ENDROOT
BRANCH   4  21
ATOM     21  C7  LG1 d5015      23.323   7.142  72.947  0.00  0.00     0.128 C 
ATOM     22  O1  LG1 d5015      24.480   6.919  73.232  0.00  0.00    -0.298 OA
ATOM     23  C8  LG1 d5015      22.987   8.117  71.872  0.00  0.00     0.091 C 
ENDBRANCH   4  21
TORSDOF 1
ENDMDL
