REMARK INTER + INTRA:          -9.189
REMARK INTER:                  -9.650
REMARK INTRA:                   0.461
REMARK UNBOUND:                -0.196
REMARK  1 active torsions:
REMARK  status: ('A' for Active; 'I' for Inactive)
REMARK    1  A    between atoms: C7_7  and  C4_4 
ROOT
ATOM      1  C1  LG1 d5015      21.553   5.811  73.628  0.00  0.00    -0.004 C 
ATOM      2  C2  LG1 d5015      20.939   4.408  73.584  0.00  0.00    -0.001 C 
ATOM      3  C3  LG1 d5015      21.967   3.275  73.954  0.00  0.00    -0.030 C 
ATOM      4  C4  LG1 d5015      20.997   2.048  73.888  0.00  0.00     0.063 C 
ATOM      5  C5  LG1 d5015      19.652   2.561  74.512  0.00  0.00     0.013 C 
ATOM      6  C6  LG1 d5015      19.720   4.131  74.497  0.00  0.00     0.006 C 
ATOM      7  C9  LG1 d5015      22.548   3.412  75.406  0.00  0.00     0.016 C 
ATOM      8  C10 LG1 d5015      23.064   3.326  72.867  0.00  0.00     0.011 C 
ATOM      9  C11 LG1 d5015      23.740   4.725  72.817  0.00  0.00     0.007 C 
ATOM     10  C12 LG1 d5015      22.714   5.864  72.581  0.00  0.00     0.002 C 
ATOM     11  C13 LG1 d5015      23.418   7.270  72.518  0.00  0.00    -0.016 C 
ATOM     12  C14 LG1 d5015      22.310   8.378  72.294  0.00  0.00    -0.068 C 
ATOM     13  C15 LG1 d5015      22.410   9.344  71.399  0.00  0.00     0.053 C 
ATOM     14  C16 LG1 d5015      23.622   9.540  70.619  0.00  0.00     0.149 C 
ATOM     15  C17 LG1 d5015      24.854   8.683  70.893  0.00  0.00     0.084 C 
ATOM     16  C18 LG1 d5015      24.410   7.263  71.324  0.00  0.00     0.022 C 
ATOM     17  O2  LG1 d5015      23.689  10.453  69.777  0.00  0.00    -0.293 OA
ATOM     18  C19 LG1 d5015      21.047   8.297  73.144  0.00  0.00     0.035 C 
ATOM     19  C20 LG1 d5015      20.488   6.864  73.228  0.00  0.00     0.010 C 
ATOM     20  C21 LG1 d5015      24.151   7.641  73.864  0.00  0.00     0.020 C 
ENDROOT
BRANCH   4  21
ATOM     21  C7  LG1 d5015      21.550   0.753  74.505  0.00  0.00     0.128 C 
ATOM     22  O1  LG1 d5015      22.032   0.764  75.618  0.00  0.00    -0.298 OA
ATOM     23  C8  LG1 d5015      21.483  -0.516  73.728  0.00  0.00     0.091 C 
ENDBRANCH   4  21
TORSDOF 1
ENDMDL
