REMARK INTER + INTRA:          -8.079
REMARK INTER:                  -7.938
REMARK INTRA:                  -0.142
REMARK UNBOUND:                -0.162
REMARK  1 active torsions:
REMARK  status: ('A' for Active; 'I' for Inactive)
REMARK    1  A    between atoms: C7_7  and  C4_4 
ROOT
ATOM      1  C1  LG1 d5015      21.623   5.778  73.164  0.00  0.00    -0.004 C 
ATOM      2  C2  LG1 d5015      22.043   7.231  72.913  0.00  0.00    -0.001 C 
ATOM      3  C3  LG1 d5015      23.375   7.350  72.082  0.00  0.00    -0.030 C 
ATOM      4  C4  LG1 d5015      23.433   8.909  71.957  0.00  0.00     0.063 C 
ATOM      5  C5  LG1 d5015      21.947   9.353  71.723  0.00  0.00     0.013 C 
ATOM      6  C6  LG1 d5015      21.043   8.146  72.164  0.00  0.00     0.006 C 
ATOM      7  C9  LG1 d5015      23.277   6.708  70.653  0.00  0.00     0.016 C 
ATOM      8  C10 LG1 d5015      24.475   6.701  72.951  0.00  0.00     0.011 C 
ATOM      9  C11 LG1 d5015      24.132   5.222  73.281  0.00  0.00     0.007 C 
ATOM     10  C12 LG1 d5015      22.757   5.082  73.985  0.00  0.00     0.002 C 
ATOM     11  C13 LG1 d5015      22.433   3.580  74.325  0.00  0.00    -0.016 C 
ATOM     12  C14 LG1 d5015      21.014   3.516  75.023  0.00  0.00    -0.068 C 
ATOM     13  C15 LG1 d5015      20.769   2.830  76.124  0.00  0.00     0.053 C 
ATOM     14  C16 LG1 d5015      21.773   1.964  76.724  0.00  0.00     0.149 C 
ATOM     15  C17 LG1 d5015      23.115   1.755  76.029  0.00  0.00     0.084 C 
ATOM     16  C18 LG1 d5015      23.525   3.056  75.296  0.00  0.00     0.022 C 
ATOM     17  O2  LG1 d5015      21.520   1.333  77.765  0.00  0.00    -0.293 OA
ATOM     18  C19 LG1 d5015      19.881   4.322  74.397  0.00  0.00     0.035 C 
ATOM     19  C20 LG1 d5015      20.322   5.746  74.007  0.00  0.00     0.010 C 
ATOM     20  C21 LG1 d5015      22.336   2.675  73.038  0.00  0.00     0.020 C 
ENDROOT
BRANCH   4  21
ATOM     21  C7  LG1 d5015      24.442   9.437  70.923  0.00  0.00     0.128 C 
ATOM     22  O1  LG1 d5015      24.060   9.816  69.837  0.00  0.00    -0.298 OA
ATOM     23  C8  LG1 d5015      25.890   9.488  71.271  0.00  0.00     0.091 C 
ENDBRANCH   4  21
TORSDOF 1
ENDMDL
