REMARK INTER + INTRA:          -7.010
REMARK INTER:                  -6.848
REMARK INTRA:                  -0.162
REMARK UNBOUND:                -0.162
REMARK  1 active torsions:
REMARK  status: ('A' for Active; 'I' for Inactive)
REMARK    1  A    between atoms: C7_7  and  C4_4 
ROOT
ATOM      1  C1  LG1 d5015      20.454   3.042  74.075  0.00  0.00    -0.004 C 
ATOM      2  C2  LG1 d5015      20.797   4.536  74.107  0.00  0.00    -0.001 C 
ATOM      3  C3  LG1 d5015      22.247   4.845  73.581  0.00  0.00    -0.030 C 
ATOM      4  C4  LG1 d5015      22.204   6.406  73.677  0.00  0.00     0.063 C 
ATOM      5  C5  LG1 d5015      20.757   6.801  73.214  0.00  0.00     0.013 C 
ATOM      6  C6  LG1 d5015      19.886   5.496  73.303  0.00  0.00     0.006 C 
ATOM      7  C9  LG1 d5015      22.473   4.414  72.088  0.00  0.00     0.016 C 
ATOM      8  C10 LG1 d5015      23.212   4.135  74.557  0.00  0.00     0.011 C 
ATOM      9  C11 LG1 d5015      22.932   2.608  74.612  0.00  0.00     0.007 C 
ATOM     10  C12 LG1 d5015      21.465   2.294  75.006  0.00  0.00     0.002 C 
ATOM     11  C13 LG1 d5015      21.204   0.744  75.072  0.00  0.00    -0.016 C 
ATOM     12  C14 LG1 d5015      19.688   0.504  75.459  0.00  0.00    -0.068 C 
ATOM     13  C15 LG1 d5015      19.295  -0.347  76.389  0.00  0.00     0.053 C 
ATOM     14  C16 LG1 d5015      20.233  -1.236  77.056  0.00  0.00     0.149 C 
ATOM     15  C17 LG1 d5015      21.695  -1.272  76.620  0.00  0.00     0.084 C 
ATOM     16  C18 LG1 d5015      22.131   0.142  76.162  0.00  0.00     0.022 C 
ATOM     17  O2  LG1 d5015      19.839  -2.025  77.933  0.00  0.00    -0.293 OA
ATOM     18  C19 LG1 d5015      18.633   1.332  74.734  0.00  0.00     0.035 C 
ATOM     19  C20 LG1 d5015      19.025   2.819  74.631  0.00  0.00     0.010 C 
ATOM     20  C21 LG1 d5015      21.425   0.033  73.682  0.00  0.00     0.020 C 
ENDROOT
BRANCH   4  21
ATOM     21  C7  LG1 d5015      23.344   7.132  72.944  0.00  0.00     0.128 C 
ATOM     22  O1  LG1 d5015      24.499   6.882  73.215  0.00  0.00    -0.298 OA
ATOM     23  C8  LG1 d5015      23.018   8.137  71.893  0.00  0.00     0.091 C 
ENDBRANCH   4  21
TORSDOF 1
ENDMDL
