REMARK INTER + INTRA:          -9.219
REMARK INTER:                  -9.708
REMARK INTRA:                   0.488
REMARK UNBOUND:                -0.139
REMARK  1 active torsions:
REMARK  status: ('A' for Active; 'I' for Inactive)
REMARK    1  A    between atoms: C7_7  and  C4_4 
ROOT
ATOM      1  C1  LG1 d5015      21.578   5.810  73.605  0.00  0.00    -0.004 C 
ATOM      2  C2  LG1 d5015      20.949   4.413  73.562  0.00  0.00    -0.001 C 
ATOM      3  C3  LG1 d5015      21.967   3.269  73.924  0.00  0.00    -0.030 C 
ATOM      4  C4  LG1 d5015      20.984   2.053  73.864  0.00  0.00     0.063 C 
ATOM      5  C5  LG1 d5015      19.649   2.579  74.498  0.00  0.00     0.013 C 
ATOM      6  C6  LG1 d5015      19.734   4.148  74.485  0.00  0.00     0.006 C 
ATOM      7  C9  LG1 d5015      22.561   3.398  75.371  0.00  0.00     0.016 C 
ATOM      8  C10 LG1 d5015      23.056   3.311  72.829  0.00  0.00     0.011 C 
ATOM      9  C11 LG1 d5015      23.747   4.702  72.776  0.00  0.00     0.007 C 
ATOM     10  C12 LG1 d5015      22.732   5.852  72.549  0.00  0.00     0.002 C 
ATOM     11  C13 LG1 d5015      23.450   7.251  72.483  0.00  0.00    -0.016 C 
ATOM     12  C14 LG1 d5015      22.353   8.371  72.269  0.00  0.00    -0.068 C 
ATOM     13  C15 LG1 d5015      22.456   9.337  71.374  0.00  0.00     0.053 C 
ATOM     14  C16 LG1 d5015      23.665   9.521  70.586  0.00  0.00     0.149 C 
ATOM     15  C17 LG1 d5015      24.889   8.650  70.849  0.00  0.00     0.084 C 
ATOM     16  C18 LG1 d5015      24.433   7.235  71.282  0.00  0.00     0.022 C 
ATOM     17  O2  LG1 d5015      23.735  10.435  69.744  0.00  0.00    -0.293 OA
ATOM     18  C19 LG1 d5015      21.094   8.302  73.127  0.00  0.00     0.035 C 
ATOM     19  C20 LG1 d5015      20.522   6.874  73.213  0.00  0.00     0.010 C 
ATOM     20  C21 LG1 d5015      24.197   7.612  73.823  0.00  0.00     0.020 C 
ENDROOT
BRANCH   4  21
ATOM     21  C7  LG1 d5015      21.528   0.751  74.474  0.00  0.00     0.128 C 
ATOM     22  O1  LG1 d5015      22.051   0.762  75.568  0.00  0.00    -0.298 OA
ATOM     23  C8  LG1 d5015      21.399  -0.525  73.716  0.00  0.00     0.091 C 
ENDBRANCH   4  21
TORSDOF 1
ENDMDL
