MODEL 1
REMARK VINA RESULT:    -8.579      0.000      0.000
REMARK INTER + INTRA:          -9.219
REMARK INTER:                  -9.708
REMARK INTRA:                   0.488
REMARK UNBOUND:                -0.139
REMARK  1 active torsions:
REMARK  status: ('A' for Active; 'I' for Inactive)
REMARK    1  A    between atoms: C7_7  and  C4_4 
ROOT
ATOM      1  C1  LG1 d5015      21.578   5.810  73.605  0.00  0.00    -0.004 C 
ATOM      2  C2  LG1 d5015      20.949   4.413  73.562  0.00  0.00    -0.001 C 
ATOM      3  C3  LG1 d5015      21.967   3.269  73.924  0.00  0.00    -0.030 C 
ATOM      4  C4  LG1 d5015      20.984   2.053  73.864  0.00  0.00     0.063 C 
ATOM      5  C5  LG1 d5015      19.649   2.579  74.498  0.00  0.00     0.013 C 
ATOM      6  C6  LG1 d5015      19.734   4.148  74.485  0.00  0.00     0.006 C 
ATOM      7  C9  LG1 d5015      22.561   3.398  75.371  0.00  0.00     0.016 C 
ATOM      8  C10 LG1 d5015      23.056   3.311  72.829  0.00  0.00     0.011 C 
ATOM      9  C11 LG1 d5015      23.747   4.702  72.776  0.00  0.00     0.007 C 
ATOM     10  C12 LG1 d5015      22.732   5.852  72.549  0.00  0.00     0.002 C 
ATOM     11  C13 LG1 d5015      23.450   7.251  72.483  0.00  0.00    -0.016 C 
ATOM     12  C14 LG1 d5015      22.353   8.371  72.269  0.00  0.00    -0.068 C 
ATOM     13  C15 LG1 d5015      22.456   9.337  71.374  0.00  0.00     0.053 C 
ATOM     14  C16 LG1 d5015      23.665   9.521  70.586  0.00  0.00     0.149 C 
ATOM     15  C17 LG1 d5015      24.889   8.650  70.849  0.00  0.00     0.084 C 
ATOM     16  C18 LG1 d5015      24.433   7.235  71.282  0.00  0.00     0.022 C 
ATOM     17  O2  LG1 d5015      23.735  10.435  69.744  0.00  0.00    -0.293 OA
ATOM     18  C19 LG1 d5015      21.094   8.302  73.127  0.00  0.00     0.035 C 
ATOM     19  C20 LG1 d5015      20.522   6.874  73.213  0.00  0.00     0.010 C 
ATOM     20  C21 LG1 d5015      24.197   7.612  73.823  0.00  0.00     0.020 C 
ENDROOT
BRANCH   4  21
ATOM     21  C7  LG1 d5015      21.528   0.751  74.474  0.00  0.00     0.128 C 
ATOM     22  O1  LG1 d5015      22.051   0.762  75.568  0.00  0.00    -0.298 OA
ATOM     23  C8  LG1 d5015      21.399  -0.525  73.716  0.00  0.00     0.091 C 
ENDBRANCH   4  21
TORSDOF 1
ENDMDL
MODEL 2
REMARK VINA RESULT:    -7.523      1.419      6.896
REMARK INTER + INTRA:          -8.102
REMARK INTER:                  -7.958
REMARK INTRA:                  -0.144
REMARK UNBOUND:                -0.139
REMARK  1 active torsions:
REMARK  status: ('A' for Active; 'I' for Inactive)
REMARK    1  A    between atoms: C7_7  and  C4_4 
ROOT
ATOM      1  C1  LG1 d5015      21.621   5.793  73.173  0.00  0.00    -0.004 C 
ATOM      2  C2  LG1 d5015      22.051   7.242  72.920  0.00  0.00    -0.001 C 
ATOM      3  C3  LG1 d5015      23.395   7.350  72.107  0.00  0.00    -0.030 C 
ATOM      4  C4  LG1 d5015      23.462   8.908  71.974  0.00  0.00     0.063 C 
ATOM      5  C5  LG1 d5015      21.981   9.359  71.718  0.00  0.00     0.013 C 
ATOM      6  C6  LG1 d5015      21.066   8.157  72.153  0.00  0.00     0.006 C 
ATOM      7  C9  LG1 d5015      23.313   6.701  70.680  0.00  0.00     0.016 C 
ATOM      8  C10 LG1 d5015      24.480   6.701  72.994  0.00  0.00     0.011 C 
ATOM      9  C11 LG1 d5015      24.125   5.225  73.327  0.00  0.00     0.007 C 
ATOM     10  C12 LG1 d5015      22.741   5.096  74.014  0.00  0.00     0.002 C 
ATOM     11  C13 LG1 d5015      22.405   3.597  74.357  0.00  0.00    -0.016 C 
ATOM     12  C14 LG1 d5015      20.977   3.543  75.035  0.00  0.00    -0.068 C 
ATOM     13  C15 LG1 d5015      20.713   2.864  76.137  0.00  0.00     0.053 C 
ATOM     14  C16 LG1 d5015      21.705   1.998  76.755  0.00  0.00     0.149 C 
ATOM     15  C17 LG1 d5015      23.055   1.778  76.080  0.00  0.00     0.084 C 
ATOM     16  C18 LG1 d5015      23.482   3.073  75.345  0.00  0.00     0.022 C 
ATOM     17  O2  LG1 d5015      21.435   1.373  77.796  0.00  0.00    -0.293 OA
ATOM     18  C19 LG1 d5015      19.856   4.352  74.390  0.00  0.00     0.035 C 
ATOM     19  C20 LG1 d5015      20.309   5.771  73.998  0.00  0.00     0.010 C 
ATOM     20  C21 LG1 d5015      22.321   2.686  73.073  0.00  0.00     0.020 C 
ENDROOT
BRANCH   4  21
ATOM     21  C7  LG1 d5015      24.488   9.426  70.951  0.00  0.00     0.128 C 
ATOM     22  O1  LG1 d5015      24.124   9.779  69.850  0.00  0.00    -0.298 OA
ATOM     23  C8  LG1 d5015      25.927   9.498  71.328  0.00  0.00     0.091 C 
ENDBRANCH   4  21
TORSDOF 1
ENDMDL
MODEL 3
REMARK VINA RESULT:    -7.352      1.118      7.200
REMARK INTER + INTRA:          -7.920
REMARK INTER:                  -8.474
REMARK INTRA:                   0.553
REMARK UNBOUND:                -0.139
REMARK  1 active torsions:
REMARK  status: ('A' for Active; 'I' for Inactive)
REMARK    1  A    between atoms: C7_7  and  C4_4 
ROOT
ATOM      1  C1  LG1 d5015      23.074   5.114  73.030  0.00  0.00    -0.004 C 
ATOM      2  C2  LG1 d5015      23.276   6.155  71.923  0.00  0.00    -0.001 C 
ATOM      3  C3  LG1 d5015      22.734   7.580  72.314  0.00  0.00    -0.030 C 
ATOM      4  C4  LG1 d5015      23.177   8.359  71.031  0.00  0.00     0.063 C 
ATOM      5  C5  LG1 d5015      24.590   7.779  70.672  0.00  0.00     0.013 C 
ATOM      6  C6  LG1 d5015      24.724   6.416  71.443  0.00  0.00     0.006 C 
ATOM      7  C9  LG1 d5015      23.442   8.192  73.574  0.00  0.00     0.016 C 
ATOM      8  C10 LG1 d5015      21.210   7.414  72.510  0.00  0.00     0.011 C 
ATOM      9  C11 LG1 d5015      20.897   6.358  73.605  0.00  0.00     0.007 C 
ATOM     10  C12 LG1 d5015      21.538   4.981  73.293  0.00  0.00     0.002 C 
ATOM     11  C13 LG1 d5015      21.197   3.920  74.404  0.00  0.00    -0.016 C 
ATOM     12  C14 LG1 d5015      21.897   2.552  74.026  0.00  0.00    -0.068 C 
ATOM     13  C15 LG1 d5015      21.285   1.382  74.057  0.00  0.00     0.053 C 
ATOM     14  C16 LG1 d5015      19.931   1.242  74.569  0.00  0.00     0.149 C 
ATOM     15  C17 LG1 d5015      19.215   2.445  75.177  0.00  0.00     0.084 C 
ATOM     16  C18 LG1 d5015      19.656   3.734  74.441  0.00  0.00     0.022 C 
ATOM     17  O2  LG1 d5015      19.373   0.130  74.582  0.00  0.00    -0.293 OA
ATOM     18  C19 LG1 d5015      23.352   2.603  73.571  0.00  0.00     0.035 C 
ATOM     19  C20 LG1 d5015      23.608   3.737  72.559  0.00  0.00     0.010 C 
ATOM     20  C21 LG1 d5015      21.754   4.327  75.821  0.00  0.00     0.020 C 
ENDROOT
BRANCH   4  21
ATOM     21  C7  LG1 d5015      23.111   9.891  71.149  0.00  0.00     0.128 C 
ATOM     22  O1  LG1 d5015      23.784  10.587  70.419  0.00  0.00    -0.298 OA
ATOM     23  C8  LG1 d5015      22.210  10.511  72.159  0.00  0.00     0.091 C 
ENDBRANCH   4  21
TORSDOF 1
ENDMDL
MODEL 4
REMARK VINA RESULT:    -6.716      2.319      7.776
REMARK INTER + INTRA:          -7.248
REMARK INTER:                  -7.047
REMARK INTRA:                  -0.201
REMARK UNBOUND:                -0.139
REMARK  1 active torsions:
REMARK  status: ('A' for Active; 'I' for Inactive)
REMARK    1  A    between atoms: C7_7  and  C4_4 
ROOT
ATOM      1  C1  LG1 d5015      21.613   2.658  75.075  0.00  0.00    -0.004 C 
ATOM      2  C2  LG1 d5015      22.420   3.287  73.935  0.00  0.00    -0.001 C 
ATOM      3  C3  LG1 d5015      21.954   4.749  73.585  0.00  0.00    -0.030 C 
ATOM      4  C4  LG1 d5015      23.019   5.078  72.487  0.00  0.00     0.063 C 
ATOM      5  C5  LG1 d5015      24.355   4.445  73.014  0.00  0.00     0.013 C 
ATOM      6  C6  LG1 d5015      23.952   3.410  74.126  0.00  0.00     0.006 C 
ATOM      7  C9  LG1 d5015      22.102   5.753  74.782  0.00  0.00     0.016 C 
ATOM      8  C10 LG1 d5015      20.495   4.622  73.093  0.00  0.00     0.011 C 
ATOM      9  C11 LG1 d5015      19.591   3.972  74.178  0.00  0.00     0.007 C 
ATOM     10  C12 LG1 d5015      20.117   2.583  74.624  0.00  0.00     0.002 C 
ATOM     11  C13 LG1 d5015      19.181   1.934  75.710  0.00  0.00    -0.016 C 
ATOM     12  C14 LG1 d5015      19.790   0.533  76.127  0.00  0.00    -0.068 C 
ATOM     13  C15 LG1 d5015      19.079  -0.576  76.219  0.00  0.00     0.053 C 
ATOM     14  C16 LG1 d5015      17.633  -0.572  76.061  0.00  0.00     0.149 C 
ATOM     15  C17 LG1 d5015      16.888   0.746  75.879  0.00  0.00     0.084 C 
ATOM     16  C18 LG1 d5015      17.775   1.736  75.084  0.00  0.00     0.022 C 
ATOM     17  O2  LG1 d5015      16.987  -1.632  76.145  0.00  0.00    -0.293 OA
ATOM     18  C19 LG1 d5015      21.288   0.467  76.404  0.00  0.00     0.035 C 
ATOM     19  C20 LG1 d5015      22.114   1.216  75.341  0.00  0.00     0.010 C 
ATOM     20  C21 LG1 d5015      19.099   2.792  77.030  0.00  0.00     0.020 C 
ENDROOT
BRANCH   4  21
ATOM     21  C7  LG1 d5015      23.110   6.563  72.098  0.00  0.00     0.128 C 
ATOM     22  O1  LG1 d5015      22.163   7.117  71.584  0.00  0.00    -0.298 OA
ATOM     23  C8  LG1 d5015      24.368   7.315  72.364  0.00  0.00     0.091 C 
ENDBRANCH   4  21
TORSDOF 1
ENDMDL
MODEL 5
REMARK VINA RESULT:    -6.517      2.083      7.559
REMARK INTER + INTRA:          -7.037
REMARK INTER:                  -6.898
REMARK INTRA:                  -0.139
REMARK UNBOUND:                -0.139
REMARK  1 active torsions:
REMARK  status: ('A' for Active; 'I' for Inactive)
REMARK    1  A    between atoms: C7_7  and  C4_4 
ROOT
ATOM      1  C1  LG1 d5015      20.439   3.025  74.071  0.00  0.00    -0.004 C 
ATOM      2  C2  LG1 d5015      20.781   4.518  74.128  0.00  0.00    -0.001 C 
ATOM      3  C3  LG1 d5015      22.231   4.836  73.606  0.00  0.00    -0.030 C 
ATOM      4  C4  LG1 d5015      22.187   6.395  73.729  0.00  0.00     0.063 C 
ATOM      5  C5  LG1 d5015      20.741   6.798  73.273  0.00  0.00     0.013 C 
ATOM      6  C6  LG1 d5015      19.870   5.491  73.340  0.00  0.00     0.006 C 
ATOM      7  C9  LG1 d5015      22.457   4.430  72.107  0.00  0.00     0.016 C 
ATOM      8  C10 LG1 d5015      23.196   4.111  74.571  0.00  0.00     0.011 C 
ATOM      9  C11 LG1 d5015      22.917   2.582  74.601  0.00  0.00     0.007 C 
ATOM     10  C12 LG1 d5015      21.450   2.262  74.989  0.00  0.00     0.002 C 
ATOM     11  C13 LG1 d5015      21.189   0.711  75.030  0.00  0.00    -0.016 C 
ATOM     12  C14 LG1 d5015      19.674   0.464  75.413  0.00  0.00    -0.068 C 
ATOM     13  C15 LG1 d5015      19.280  -0.403  76.329  0.00  0.00     0.053 C 
ATOM     14  C16 LG1 d5015      20.219  -1.303  76.981  0.00  0.00     0.149 C 
ATOM     15  C17 LG1 d5015      21.681  -1.330  76.544  0.00  0.00     0.084 C 
ATOM     16  C18 LG1 d5015      22.117   0.091  76.109  0.00  0.00     0.022 C 
ATOM     17  O2  LG1 d5015      19.826  -2.106  77.845  0.00  0.00    -0.293 OA
ATOM     18  C19 LG1 d5015      18.618   1.304  74.702  0.00  0.00     0.035 C 
ATOM     19  C20 LG1 d5015      19.009   2.792  74.624  0.00  0.00     0.010 C 
ATOM     20  C21 LG1 d5015      21.410   0.022  73.628  0.00  0.00     0.020 C 
ENDROOT
BRANCH   4  21
ATOM     21  C7  LG1 d5015      23.327   7.133  73.007  0.00  0.00     0.128 C 
ATOM     22  O1  LG1 d5015      24.482   6.849  73.242  0.00  0.00    -0.298 OA
ATOM     23  C8  LG1 d5015      23.001   8.194  72.014  0.00  0.00     0.091 C 
ENDBRANCH   4  21
TORSDOF 1
ENDMDL
