REMARK INTER + INTRA:          -9.218
REMARK INTER:                  -9.707
REMARK INTRA:                   0.489
REMARK UNBOUND:                -0.162
REMARK  1 active torsions:
REMARK  status: ('A' for Active; 'I' for Inactive)
REMARK    1  A    between atoms: C7_7  and  C4_4 
ROOT
ATOM      1  C1  LG1 d5015      21.571   5.799  73.628  0.00  0.00    -0.004 C 
ATOM      2  C2  LG1 d5015      20.956   4.395  73.596  0.00  0.00    -0.001 C 
ATOM      3  C3  LG1 d5015      21.983   3.266  73.983  0.00  0.00    -0.030 C 
ATOM      4  C4  LG1 d5015      21.013   2.039  73.927  0.00  0.00     0.063 C 
ATOM      5  C5  LG1 d5015      19.665   2.559  74.540  0.00  0.00     0.013 C 
ATOM      6  C6  LG1 d5015      19.734   4.129  74.508  0.00  0.00     0.006 C 
ATOM      7  C9  LG1 d5015      22.559   3.418  75.435  0.00  0.00     0.016 C 
ATOM      8  C10 LG1 d5015      23.083   3.305  72.899  0.00  0.00     0.011 C 
ATOM      9  C11 LG1 d5015      23.760   4.703  72.837  0.00  0.00     0.007 C 
ATOM     10  C12 LG1 d5015      22.736   5.840  72.585  0.00  0.00     0.002 C 
ATOM     11  C13 LG1 d5015      23.440   7.245  72.509  0.00  0.00    -0.016 C 
ATOM     12  C14 LG1 d5015      22.334   8.351  72.269  0.00  0.00    -0.068 C 
ATOM     13  C15 LG1 d5015      22.438   9.307  71.364  0.00  0.00     0.053 C 
ATOM     14  C16 LG1 d5015      23.653   9.494  70.587  0.00  0.00     0.149 C 
ATOM     15  C17 LG1 d5015      24.884   8.639  70.874  0.00  0.00     0.084 C 
ATOM     16  C18 LG1 d5015      24.437   7.225  71.319  0.00  0.00     0.022 C 
ATOM     17  O2  LG1 d5015      23.724  10.398  69.735  0.00  0.00    -0.293 OA
ATOM     18  C19 LG1 d5015      21.067   8.280  73.115  0.00  0.00     0.035 C 
ATOM     19  C20 LG1 d5015      20.508   6.847  73.212  0.00  0.00     0.010 C 
ATOM     20  C21 LG1 d5015      24.169   7.630  73.853  0.00  0.00     0.020 C 
ENDROOT
BRANCH   4  21
ATOM     21  C7  LG1 d5015      21.562   0.750  74.559  0.00  0.00     0.128 C 
ATOM     22  O1  LG1 d5015      22.085   0.782  75.653  0.00  0.00    -0.298 OA
ATOM     23  C8  LG1 d5015      21.441  -0.539  73.822  0.00  0.00     0.091 C 
ENDBRANCH   4  21
TORSDOF 1
ENDMDL
