REMARK INTER + INTRA:          -8.102
REMARK INTER:                  -7.958
REMARK INTRA:                  -0.144
REMARK UNBOUND:                -0.139
REMARK  1 active torsions:
REMARK  status: ('A' for Active; 'I' for Inactive)
REMARK    1  A    between atoms: C7_7  and  C4_4 
ROOT
ATOM      1  C1  LG1 d5015      21.621   5.793  73.173  0.00  0.00    -0.004 C 
ATOM      2  C2  LG1 d5015      22.051   7.242  72.920  0.00  0.00    -0.001 C 
ATOM      3  C3  LG1 d5015      23.395   7.350  72.107  0.00  0.00    -0.030 C 
ATOM      4  C4  LG1 d5015      23.462   8.908  71.974  0.00  0.00     0.063 C 
ATOM      5  C5  LG1 d5015      21.981   9.359  71.718  0.00  0.00     0.013 C 
ATOM      6  C6  LG1 d5015      21.066   8.157  72.153  0.00  0.00     0.006 C 
ATOM      7  C9  LG1 d5015      23.313   6.701  70.680  0.00  0.00     0.016 C 
ATOM      8  C10 LG1 d5015      24.480   6.701  72.994  0.00  0.00     0.011 C 
ATOM      9  C11 LG1 d5015      24.125   5.225  73.327  0.00  0.00     0.007 C 
ATOM     10  C12 LG1 d5015      22.741   5.096  74.014  0.00  0.00     0.002 C 
ATOM     11  C13 LG1 d5015      22.405   3.597  74.357  0.00  0.00    -0.016 C 
ATOM     12  C14 LG1 d5015      20.977   3.543  75.035  0.00  0.00    -0.068 C 
ATOM     13  C15 LG1 d5015      20.713   2.864  76.137  0.00  0.00     0.053 C 
ATOM     14  C16 LG1 d5015      21.705   1.998  76.755  0.00  0.00     0.149 C 
ATOM     15  C17 LG1 d5015      23.055   1.778  76.080  0.00  0.00     0.084 C 
ATOM     16  C18 LG1 d5015      23.482   3.073  75.345  0.00  0.00     0.022 C 
ATOM     17  O2  LG1 d5015      21.435   1.373  77.796  0.00  0.00    -0.293 OA
ATOM     18  C19 LG1 d5015      19.856   4.352  74.390  0.00  0.00     0.035 C 
ATOM     19  C20 LG1 d5015      20.309   5.771  73.998  0.00  0.00     0.010 C 
ATOM     20  C21 LG1 d5015      22.321   2.686  73.073  0.00  0.00     0.020 C 
ENDROOT
BRANCH   4  21
ATOM     21  C7  LG1 d5015      24.488   9.426  70.951  0.00  0.00     0.128 C 
ATOM     22  O1  LG1 d5015      24.124   9.779  69.850  0.00  0.00    -0.298 OA
ATOM     23  C8  LG1 d5015      25.927   9.498  71.328  0.00  0.00     0.091 C 
ENDBRANCH   4  21
TORSDOF 1
ENDMDL
