REMARK INTER + INTRA:          -7.918
REMARK INTER:                  -8.450
REMARK INTRA:                   0.532
REMARK UNBOUND:                -0.162
REMARK  1 active torsions:
REMARK  status: ('A' for Active; 'I' for Inactive)
REMARK    1  A    between atoms: C7_7  and  C4_4 
ROOT
ATOM      1  C1  LG1 d5015      23.094   5.134  73.027  0.00  0.00    -0.004 C 
ATOM      2  C2  LG1 d5015      23.294   6.176  71.922  0.00  0.00    -0.001 C 
ATOM      3  C3  LG1 d5015      22.742   7.598  72.311  0.00  0.00    -0.030 C 
ATOM      4  C4  LG1 d5015      23.185   8.380  71.030  0.00  0.00     0.063 C 
ATOM      5  C5  LG1 d5015      24.603   7.809  70.676  0.00  0.00     0.013 C 
ATOM      6  C6  LG1 d5015      24.742   6.446  71.447  0.00  0.00     0.006 C 
ATOM      7  C9  LG1 d5015      23.442   8.213  73.574  0.00  0.00     0.016 C 
ATOM      8  C10 LG1 d5015      21.219   7.423  72.502  0.00  0.00     0.011 C 
ATOM      9  C11 LG1 d5015      20.907   6.364  73.596  0.00  0.00     0.007 C 
ATOM     10  C12 LG1 d5015      21.557   4.991  73.285  0.00  0.00     0.002 C 
ATOM     11  C13 LG1 d5015      21.219   3.928  74.394  0.00  0.00    -0.016 C 
ATOM     12  C14 LG1 d5015      21.928   2.564  74.018  0.00  0.00    -0.068 C 
ATOM     13  C15 LG1 d5015      21.323   1.390  74.047  0.00  0.00     0.053 C 
ATOM     14  C16 LG1 d5015      19.968   1.243  74.554  0.00  0.00     0.149 C 
ATOM     15  C17 LG1 d5015      19.243   2.441  75.160  0.00  0.00     0.084 C 
ATOM     16  C18 LG1 d5015      19.679   3.733  74.426  0.00  0.00     0.022 C 
ATOM     17  O2  LG1 d5015      19.417   0.128  74.564  0.00  0.00    -0.293 OA
ATOM     18  C19 LG1 d5015      23.384   2.624  73.568  0.00  0.00     0.035 C 
ATOM     19  C20 LG1 d5015      23.638   3.760  72.558  0.00  0.00     0.010 C 
ATOM     20  C21 LG1 d5015      21.769   4.338  75.814  0.00  0.00     0.020 C 
ENDROOT
BRANCH   4  21
ATOM     21  C7  LG1 d5015      23.110   9.911  71.148  0.00  0.00     0.128 C 
ATOM     22  O1  LG1 d5015      23.795  10.612  70.435  0.00  0.00    -0.298 OA
ATOM     23  C8  LG1 d5015      22.183  10.526  72.140  0.00  0.00     0.091 C 
ENDBRANCH   4  21
TORSDOF 1
ENDMDL
