REMARK INTER + INTRA:          -7.890
REMARK INTER:                  -8.419
REMARK INTRA:                   0.529
REMARK UNBOUND:                -0.192
REMARK  1 active torsions:
REMARK  status: ('A' for Active; 'I' for Inactive)
REMARK    1  A    between atoms: C7_7  and  C4_4 
ROOT
ATOM      1  C1  LG1 d5015      23.127   5.160  73.046  0.00  0.00    -0.004 C 
ATOM      2  C2  LG1 d5015      23.332   6.198  71.937  0.00  0.00    -0.001 C 
ATOM      3  C3  LG1 d5015      22.782   7.622  72.320  0.00  0.00    -0.030 C 
ATOM      4  C4  LG1 d5015      23.230   8.398  71.037  0.00  0.00     0.063 C 
ATOM      5  C5  LG1 d5015      24.648   7.823  70.689  0.00  0.00     0.013 C 
ATOM      6  C6  LG1 d5015      24.783   6.464  71.466  0.00  0.00     0.006 C 
ATOM      7  C9  LG1 d5015      23.479   8.242  73.582  0.00  0.00     0.016 C 
ATOM      8  C10 LG1 d5015      21.258   7.451  72.506  0.00  0.00     0.011 C 
ATOM      9  C11 LG1 d5015      20.941   6.397  73.603  0.00  0.00     0.007 C 
ATOM     10  C12 LG1 d5015      21.590   5.021  73.300  0.00  0.00     0.002 C 
ATOM     11  C13 LG1 d5015      21.246   3.963  74.412  0.00  0.00    -0.016 C 
ATOM     12  C14 LG1 d5015      21.955   2.597  74.044  0.00  0.00    -0.068 C 
ATOM     13  C15 LG1 d5015      21.347   1.424  74.076  0.00  0.00     0.053 C 
ATOM     14  C16 LG1 d5015      19.990   1.281  74.579  0.00  0.00     0.149 C 
ATOM     15  C17 LG1 d5015      19.266   2.483  75.178  0.00  0.00     0.084 C 
ATOM     16  C18 LG1 d5015      19.706   3.771  74.440  0.00  0.00     0.022 C 
ATOM     17  O2  LG1 d5015      19.437   0.167  74.592  0.00  0.00    -0.293 OA
ATOM     18  C19 LG1 d5015      23.412   2.653  73.598  0.00  0.00     0.035 C 
ATOM     19  C20 LG1 d5015      23.670   3.784  72.584  0.00  0.00     0.010 C 
ATOM     20  C21 LG1 d5015      21.793   4.378  75.832  0.00  0.00     0.020 C 
ENDROOT
BRANCH   4  21
ATOM     21  C7  LG1 d5015      23.157   9.930  71.148  0.00  0.00     0.128 C 
ATOM     22  O1  LG1 d5015      23.848  10.627  70.437  0.00  0.00    -0.298 OA
ATOM     23  C8  LG1 d5015      22.226  10.551  72.131  0.00  0.00     0.091 C 
ENDBRANCH   4  21
TORSDOF 1
ENDMDL
