REMARK INTER + INTRA:          -7.248
REMARK INTER:                  -7.047
REMARK INTRA:                  -0.201
REMARK UNBOUND:                -0.139
REMARK  1 active torsions:
REMARK  status: ('A' for Active; 'I' for Inactive)
REMARK    1  A    between atoms: C7_7  and  C4_4 
ROOT
ATOM      1  C1  LG1 d5015      21.613   2.658  75.075  0.00  0.00    -0.004 C 
ATOM      2  C2  LG1 d5015      22.420   3.287  73.935  0.00  0.00    -0.001 C 
ATOM      3  C3  LG1 d5015      21.954   4.749  73.585  0.00  0.00    -0.030 C 
ATOM      4  C4  LG1 d5015      23.019   5.078  72.487  0.00  0.00     0.063 C 
ATOM      5  C5  LG1 d5015      24.355   4.445  73.014  0.00  0.00     0.013 C 
ATOM      6  C6  LG1 d5015      23.952   3.410  74.126  0.00  0.00     0.006 C 
ATOM      7  C9  LG1 d5015      22.102   5.753  74.782  0.00  0.00     0.016 C 
ATOM      8  C10 LG1 d5015      20.495   4.622  73.093  0.00  0.00     0.011 C 
ATOM      9  C11 LG1 d5015      19.591   3.972  74.178  0.00  0.00     0.007 C 
ATOM     10  C12 LG1 d5015      20.117   2.583  74.624  0.00  0.00     0.002 C 
ATOM     11  C13 LG1 d5015      19.181   1.934  75.710  0.00  0.00    -0.016 C 
ATOM     12  C14 LG1 d5015      19.790   0.533  76.127  0.00  0.00    -0.068 C 
ATOM     13  C15 LG1 d5015      19.079  -0.576  76.219  0.00  0.00     0.053 C 
ATOM     14  C16 LG1 d5015      17.633  -0.572  76.061  0.00  0.00     0.149 C 
ATOM     15  C17 LG1 d5015      16.888   0.746  75.879  0.00  0.00     0.084 C 
ATOM     16  C18 LG1 d5015      17.775   1.736  75.084  0.00  0.00     0.022 C 
ATOM     17  O2  LG1 d5015      16.987  -1.632  76.145  0.00  0.00    -0.293 OA
ATOM     18  C19 LG1 d5015      21.288   0.467  76.404  0.00  0.00     0.035 C 
ATOM     19  C20 LG1 d5015      22.114   1.216  75.341  0.00  0.00     0.010 C 
ATOM     20  C21 LG1 d5015      19.099   2.792  77.030  0.00  0.00     0.020 C 
ENDROOT
BRANCH   4  21
ATOM     21  C7  LG1 d5015      23.110   6.563  72.098  0.00  0.00     0.128 C 
ATOM     22  O1  LG1 d5015      22.163   7.117  71.584  0.00  0.00    -0.298 OA
ATOM     23  C8  LG1 d5015      24.368   7.315  72.364  0.00  0.00     0.091 C 
ENDBRANCH   4  21
TORSDOF 1
ENDMDL
