REMARK INTER + INTRA:          -8.073
REMARK INTER:                  -7.932
REMARK INTRA:                  -0.141
REMARK UNBOUND:                -0.192
REMARK  1 active torsions:
REMARK  status: ('A' for Active; 'I' for Inactive)
REMARK    1  A    between atoms: C7_7  and  C4_4 
ROOT
ATOM      1  C1  LG1 d5015      21.631   5.784  73.152  0.00  0.00    -0.004 C 
ATOM      2  C2  LG1 d5015      22.071   7.233  72.919  0.00  0.00    -0.001 C 
ATOM      3  C3  LG1 d5015      23.422   7.343  72.119  0.00  0.00    -0.030 C 
ATOM      4  C4  LG1 d5015      23.499   8.902  72.003  0.00  0.00     0.063 C 
ATOM      5  C5  LG1 d5015      22.022   9.362  71.738  0.00  0.00     0.013 C 
ATOM      6  C6  LG1 d5015      21.097   8.161  72.152  0.00  0.00     0.006 C 
ATOM      7  C9  LG1 d5015      23.352   6.710  70.685  0.00  0.00     0.016 C 
ATOM      8  C10 LG1 d5015      24.496   6.680  73.010  0.00  0.00     0.011 C 
ATOM      9  C11 LG1 d5015      24.131   5.203  73.324  0.00  0.00     0.007 C 
ATOM     10  C12 LG1 d5015      22.740   5.072  73.996  0.00  0.00     0.002 C 
ATOM     11  C13 LG1 d5015      22.394   3.572  74.321  0.00  0.00    -0.016 C 
ATOM     12  C14 LG1 d5015      20.959   3.518  74.985  0.00  0.00    -0.068 C 
ATOM     13  C15 LG1 d5015      20.681   2.829  76.077  0.00  0.00     0.053 C 
ATOM     14  C16 LG1 d5015      21.663   1.951  76.696  0.00  0.00     0.149 C 
ATOM     15  C17 LG1 d5015      23.019   1.732  76.031  0.00  0.00     0.084 C 
ATOM     16  C18 LG1 d5015      23.458   3.033  75.314  0.00  0.00     0.022 C 
ATOM     17  O2  LG1 d5015      21.380   1.317  77.728  0.00  0.00    -0.293 OA
ATOM     18  C19 LG1 d5015      19.848   4.338  74.338  0.00  0.00     0.035 C 
ATOM     19  C20 LG1 d5015      20.311   5.760  73.965  0.00  0.00     0.010 C 
ATOM     20  C21 LG1 d5015      22.318   2.674  73.027  0.00  0.00     0.020 C 
ENDROOT
BRANCH   4  21
ATOM     21  C7  LG1 d5015      24.536   9.426  70.996  0.00  0.00     0.128 C 
ATOM     22  O1  LG1 d5015      24.186   9.790  69.894  0.00  0.00    -0.298 OA
ATOM     23  C8  LG1 d5015      25.971   9.490  71.387  0.00  0.00     0.091 C 
ENDBRANCH   4  21
TORSDOF 1
ENDMDL
