REMARK INTER + INTRA:          -6.999
REMARK INTER:                  -6.807
REMARK INTRA:                  -0.192
REMARK UNBOUND:                -0.192
REMARK  1 active torsions:
REMARK  status: ('A' for Active; 'I' for Inactive)
REMARK    1  A    between atoms: C7_7  and  C4_4 
ROOT
ATOM      1  C1  LG1 d5015      20.476   3.081  74.139  0.00  0.00    -0.004 C 
ATOM      2  C2  LG1 d5015      20.830   4.572  74.148  0.00  0.00    -0.001 C 
ATOM      3  C3  LG1 d5015      22.268   4.865  73.578  0.00  0.00    -0.030 C 
ATOM      4  C4  LG1 d5015      22.238   6.428  73.662  0.00  0.00     0.063 C 
ATOM      5  C5  LG1 d5015      20.782   6.829  73.236  0.00  0.00     0.013 C 
ATOM      6  C6  LG1 d5015      19.904   5.532  73.362  0.00  0.00     0.006 C 
ATOM      7  C9  LG1 d5015      22.448   4.419  72.084  0.00  0.00     0.016 C 
ATOM      8  C10 LG1 d5015      23.254   4.158  74.533  0.00  0.00     0.011 C 
ATOM      9  C11 LG1 d5015      22.965   2.633  74.611  0.00  0.00     0.007 C 
ATOM     10  C12 LG1 d5015      21.507   2.334  75.048  0.00  0.00     0.002 C 
ATOM     11  C13 LG1 d5015      21.237   0.786  75.136  0.00  0.00    -0.016 C 
ATOM     12  C14 LG1 d5015      19.731   0.561  75.568  0.00  0.00    -0.068 C 
ATOM     13  C15 LG1 d5015      19.358  -0.279  76.516  0.00  0.00     0.053 C 
ATOM     14  C16 LG1 d5015      20.308  -1.169  77.164  0.00  0.00     0.149 C 
ATOM     15  C17 LG1 d5015      21.757  -1.219  76.688  0.00  0.00     0.084 C 
ATOM     16  C18 LG1 d5015      22.190   0.187  76.205  0.00  0.00     0.022 C 
ATOM     17  O2  LG1 d5015      19.933  -1.947  78.060  0.00  0.00    -0.293 OA
ATOM     18  C19 LG1 d5015      18.662   1.391  74.865  0.00  0.00     0.035 C 
ATOM     19  C20 LG1 d5015      19.061   2.874  74.738  0.00  0.00     0.010 C 
ATOM     20  C21 LG1 d5015      21.413   0.061  73.747  0.00  0.00     0.020 C 
ENDROOT
BRANCH   4  21
ATOM     21  C7  LG1 d5015      23.362   7.138  72.890  0.00  0.00     0.128 C 
ATOM     22  O1  LG1 d5015      24.522   6.945  73.186  0.00  0.00    -0.298 OA
ATOM     23  C8  LG1 d5015      23.016   8.059  71.772  0.00  0.00     0.091 C 
ENDBRANCH   4  21
TORSDOF 1
ENDMDL
