REMARK INTER + INTRA:          -7.259
REMARK INTER:                  -7.057
REMARK INTRA:                  -0.202
REMARK UNBOUND:                -0.196
REMARK  1 active torsions:
REMARK  status: ('A' for Active; 'I' for Inactive)
REMARK    1  A    between atoms: C7_7  and  C4_4 
ROOT
ATOM      1  C1  LG1 d5015      21.559   2.644  75.038  0.00  0.00    -0.004 C 
ATOM      2  C2  LG1 d5015      22.369   3.241  73.882  0.00  0.00    -0.001 C 
ATOM      3  C3  LG1 d5015      21.973   4.730  73.559  0.00  0.00    -0.030 C 
ATOM      4  C4  LG1 d5015      23.026   5.013  72.436  0.00  0.00     0.063 C 
ATOM      5  C5  LG1 d5015      24.338   4.304  72.921  0.00  0.00     0.013 C 
ATOM      6  C6  LG1 d5015      23.910   3.280  74.033  0.00  0.00     0.006 C 
ATOM      7  C9  LG1 d5015      22.207   5.712  74.761  0.00  0.00     0.016 C 
ATOM      8  C10 LG1 d5015      20.497   4.687  73.105  0.00  0.00     0.011 C 
ATOM      9  C11 LG1 d5015      19.589   4.075  74.207  0.00  0.00     0.007 C 
ATOM     10  C12 LG1 d5015      20.050   2.654  74.626  0.00  0.00     0.002 C 
ATOM     11  C13 LG1 d5015      19.110   2.044  75.730  0.00  0.00    -0.016 C 
ATOM     12  C14 LG1 d5015      19.652   0.609  76.117  0.00  0.00    -0.068 C 
ATOM     13  C15 LG1 d5015      18.886  -0.462  76.217  0.00  0.00     0.053 C 
ATOM     14  C16 LG1 d5015      17.438  -0.379  76.098  0.00  0.00     0.149 C 
ATOM     15  C17 LG1 d5015      16.760   0.980  75.949  0.00  0.00     0.084 C 
ATOM     16  C18 LG1 d5015      17.679   1.929  75.140  0.00  0.00     0.022 C 
ATOM     17  O2  LG1 d5015      16.738  -1.403  76.190  0.00  0.00    -0.293 OA
ATOM     18  C19 LG1 d5015      21.151   0.459  76.354  0.00  0.00     0.035 C 
ATOM     19  C20 LG1 d5015      21.988   1.174  75.275  0.00  0.00     0.010 C 
ATOM     20  C21 LG1 d5015      19.109   2.892  77.060  0.00  0.00     0.020 C 
ENDROOT
BRANCH   4  21
ATOM     21  C7  LG1 d5015      23.187   6.496  72.059  0.00  0.00     0.128 C 
ATOM     22  O1  LG1 d5015      22.262   7.103  71.562  0.00  0.00    -0.298 OA
ATOM     23  C8  LG1 d5015      24.484   7.181  72.316  0.00  0.00     0.091 C 
ENDBRANCH   4  21
TORSDOF 1
ENDMDL
