REMARK INTER + INTRA:          -7.921
REMARK INTER:                  -8.467
REMARK INTRA:                   0.546
REMARK UNBOUND:                -0.196
REMARK  1 active torsions:
REMARK  status: ('A' for Active; 'I' for Inactive)
REMARK    1  A    between atoms: C7_7  and  C4_4 
ROOT
ATOM      1  C1  LG1 d5015      23.118   5.143  73.029  0.00  0.00    -0.004 C 
ATOM      2  C2  LG1 d5015      23.315   6.183  71.921  0.00  0.00    -0.001 C 
ATOM      3  C3  LG1 d5015      22.763   7.605  72.308  0.00  0.00    -0.030 C 
ATOM      4  C4  LG1 d5015      23.203   8.385  71.024  0.00  0.00     0.063 C 
ATOM      5  C5  LG1 d5015      24.621   7.813  70.668  0.00  0.00     0.013 C 
ATOM      6  C6  LG1 d5015      24.763   6.453  71.442  0.00  0.00     0.006 C 
ATOM      7  C9  LG1 d5015      23.465   8.224  73.568  0.00  0.00     0.016 C 
ATOM      8  C10 LG1 d5015      21.240   7.430  72.502  0.00  0.00     0.011 C 
ATOM      9  C11 LG1 d5015      20.932   6.374  73.599  0.00  0.00     0.007 C 
ATOM     10  C12 LG1 d5015      21.582   5.000  73.289  0.00  0.00     0.002 C 
ATOM     11  C13 LG1 d5015      21.246   3.939  74.402  0.00  0.00    -0.016 C 
ATOM     12  C14 LG1 d5015      21.956   2.575  74.028  0.00  0.00    -0.068 C 
ATOM     13  C15 LG1 d5015      21.352   1.401  74.060  0.00  0.00     0.053 C 
ATOM     14  C16 LG1 d5015      19.997   1.254  74.570  0.00  0.00     0.149 C 
ATOM     15  C17 LG1 d5015      19.273   2.453  75.175  0.00  0.00     0.084 C 
ATOM     16  C18 LG1 d5015      19.707   3.743  74.437  0.00  0.00     0.022 C 
ATOM     17  O2  LG1 d5015      19.447   0.138  74.584  0.00  0.00    -0.293 OA
ATOM     18  C19 LG1 d5015      23.411   2.635  73.575  0.00  0.00     0.035 C 
ATOM     19  C20 LG1 d5015      23.662   3.769  72.562  0.00  0.00     0.010 C 
ATOM     20  C21 LG1 d5015      21.799   4.352  75.820  0.00  0.00     0.020 C 
ENDROOT
BRANCH   4  21
ATOM     21  C7  LG1 d5015      23.127   9.916  71.139  0.00  0.00     0.128 C 
ATOM     22  O1  LG1 d5015      23.799  10.616  70.411  0.00  0.00    -0.298 OA
ATOM     23  C8  LG1 d5015      22.218  10.532  72.145  0.00  0.00     0.091 C 
ENDBRANCH   4  21
TORSDOF 1
ENDMDL
