REMARK INTER + INTRA:          -9.205
REMARK INTER:                  -9.684
REMARK INTRA:                   0.479
REMARK UNBOUND:                -0.176
REMARK  1 active torsions:
REMARK  status: ('A' for Active; 'I' for Inactive)
REMARK    1  A    between atoms: C7_7  and  C4_4 
ROOT
ATOM      1  C1  LG1 d5015      21.590   5.831  73.629  0.00  0.00    -0.004 C 
ATOM      2  C2  LG1 d5015      20.955   4.437  73.595  0.00  0.00    -0.001 C 
ATOM      3  C3  LG1 d5015      21.976   3.289  73.940  0.00  0.00    -0.030 C 
ATOM      4  C4  LG1 d5015      20.988   2.076  73.894  0.00  0.00     0.063 C 
ATOM      5  C5  LG1 d5015      19.664   2.606  74.549  0.00  0.00     0.013 C 
ATOM      6  C6  LG1 d5015      19.754   4.175  74.535  0.00  0.00     0.006 C 
ATOM      7  C9  LG1 d5015      22.591   3.415  75.379  0.00  0.00     0.016 C 
ATOM      8  C10 LG1 d5015      23.048   3.328  72.829  0.00  0.00     0.011 C 
ATOM      9  C11 LG1 d5015      23.742   4.717  72.767  0.00  0.00     0.007 C 
ATOM     10  C12 LG1 d5015      22.728   5.871  72.556  0.00  0.00     0.002 C 
ATOM     11  C13 LG1 d5015      23.449   7.267  72.480  0.00  0.00    -0.016 C 
ATOM     12  C14 LG1 d5015      22.352   8.391  72.283  0.00  0.00    -0.068 C 
ATOM     13  C15 LG1 d5015      22.445   9.357  71.387  0.00  0.00     0.053 C 
ATOM     14  C16 LG1 d5015      23.643   9.538  70.582  0.00  0.00     0.149 C 
ATOM     15  C17 LG1 d5015      24.869   8.663  70.826  0.00  0.00     0.084 C 
ATOM     16  C18 LG1 d5015      24.414   7.249  71.264  0.00  0.00     0.022 C 
ATOM     17  O2  LG1 d5015      23.704  10.452  69.740  0.00  0.00    -0.293 OA
ATOM     18  C19 LG1 d5015      21.107   8.326  73.160  0.00  0.00     0.035 C 
ATOM     19  C20 LG1 d5015      20.531   6.899  73.254  0.00  0.00     0.010 C 
ATOM     20  C21 LG1 d5015      24.218   7.625  73.809  0.00  0.00     0.020 C 
ENDROOT
BRANCH   4  21
ATOM     21  C7  LG1 d5015      21.536   0.772  74.496  0.00  0.00     0.128 C 
ATOM     22  O1  LG1 d5015      22.065   0.778  75.587  0.00  0.00    -0.298 OA
ATOM     23  C8  LG1 d5015      21.405  -0.500  73.732  0.00  0.00     0.091 C 
ENDBRANCH   4  21
TORSDOF 1
ENDMDL
