REMARK INTER + INTRA:          -8.087
REMARK INTER:                  -7.946
REMARK INTRA:                  -0.141
REMARK UNBOUND:                -0.176
REMARK  1 active torsions:
REMARK  status: ('A' for Active; 'I' for Inactive)
REMARK    1  A    between atoms: C7_7  and  C4_4 
ROOT
ATOM      1  C1  LG1 d5015      21.620   5.783  73.162  0.00  0.00    -0.004 C 
ATOM      2  C2  LG1 d5015      22.049   7.232  72.909  0.00  0.00    -0.001 C 
ATOM      3  C3  LG1 d5015      23.397   7.341  72.103  0.00  0.00    -0.030 C 
ATOM      4  C4  LG1 d5015      23.463   8.899  71.968  0.00  0.00     0.063 C 
ATOM      5  C5  LG1 d5015      21.983   9.347  71.703  0.00  0.00     0.013 C 
ATOM      6  C6  LG1 d5015      21.067   8.145  72.136  0.00  0.00     0.006 C 
ATOM      7  C9  LG1 d5015      23.324   6.690  70.677  0.00  0.00     0.016 C 
ATOM      8  C10 LG1 d5015      24.479   6.695  72.997  0.00  0.00     0.011 C 
ATOM      9  C11 LG1 d5015      24.124   5.219  73.330  0.00  0.00     0.007 C 
ATOM     10  C12 LG1 d5015      22.736   5.088  74.010  0.00  0.00     0.002 C 
ATOM     11  C13 LG1 d5015      22.401   3.590  74.354  0.00  0.00    -0.016 C 
ATOM     12  C14 LG1 d5015      20.969   3.535  75.025  0.00  0.00    -0.068 C 
ATOM     13  C15 LG1 d5015      20.700   2.857  76.126  0.00  0.00     0.053 C 
ATOM     14  C16 LG1 d5015      21.690   1.993  76.750  0.00  0.00     0.149 C 
ATOM     15  C17 LG1 d5015      23.044   1.774  76.082  0.00  0.00     0.084 C 
ATOM     16  C18 LG1 d5015      23.473   3.069  75.348  0.00  0.00     0.022 C 
ATOM     17  O2  LG1 d5015      21.415   1.370  77.791  0.00  0.00    -0.293 OA
ATOM     18  C19 LG1 d5015      19.850   4.341  74.372  0.00  0.00     0.035 C 
ATOM     19  C20 LG1 d5015      20.303   5.761  73.980  0.00  0.00     0.010 C 
ATOM     20  C21 LG1 d5015      22.325   2.677  73.071  0.00  0.00     0.020 C 
ENDROOT
BRANCH   4  21
ATOM     21  C7  LG1 d5015      24.493   9.417  70.950  0.00  0.00     0.128 C 
ATOM     22  O1  LG1 d5015      24.134   9.783  69.851  0.00  0.00    -0.298 OA
ATOM     23  C8  LG1 d5015      25.933   9.474  71.328  0.00  0.00     0.091 C 
ENDBRANCH   4  21
TORSDOF 1
ENDMDL
