MODEL 1
REMARK VINA RESULT:    -8.556      0.000      0.000
REMARK INTER + INTRA:          -9.218
REMARK INTER:                  -9.707
REMARK INTRA:                   0.489
REMARK UNBOUND:                -0.162
REMARK  1 active torsions:
REMARK  status: ('A' for Active; 'I' for Inactive)
REMARK    1  A    between atoms: C7_7  and  C4_4 
ROOT
ATOM      1  C1  LG1 d5015      21.571   5.799  73.628  0.00  0.00    -0.004 C 
ATOM      2  C2  LG1 d5015      20.956   4.395  73.596  0.00  0.00    -0.001 C 
ATOM      3  C3  LG1 d5015      21.983   3.266  73.983  0.00  0.00    -0.030 C 
ATOM      4  C4  LG1 d5015      21.013   2.039  73.927  0.00  0.00     0.063 C 
ATOM      5  C5  LG1 d5015      19.665   2.559  74.540  0.00  0.00     0.013 C 
ATOM      6  C6  LG1 d5015      19.734   4.129  74.508  0.00  0.00     0.006 C 
ATOM      7  C9  LG1 d5015      22.559   3.418  75.435  0.00  0.00     0.016 C 
ATOM      8  C10 LG1 d5015      23.083   3.305  72.899  0.00  0.00     0.011 C 
ATOM      9  C11 LG1 d5015      23.760   4.703  72.837  0.00  0.00     0.007 C 
ATOM     10  C12 LG1 d5015      22.736   5.840  72.585  0.00  0.00     0.002 C 
ATOM     11  C13 LG1 d5015      23.440   7.245  72.509  0.00  0.00    -0.016 C 
ATOM     12  C14 LG1 d5015      22.334   8.351  72.269  0.00  0.00    -0.068 C 
ATOM     13  C15 LG1 d5015      22.438   9.307  71.364  0.00  0.00     0.053 C 
ATOM     14  C16 LG1 d5015      23.653   9.494  70.587  0.00  0.00     0.149 C 
ATOM     15  C17 LG1 d5015      24.884   8.639  70.874  0.00  0.00     0.084 C 
ATOM     16  C18 LG1 d5015      24.437   7.225  71.319  0.00  0.00     0.022 C 
ATOM     17  O2  LG1 d5015      23.724  10.398  69.735  0.00  0.00    -0.293 OA
ATOM     18  C19 LG1 d5015      21.067   8.280  73.115  0.00  0.00     0.035 C 
ATOM     19  C20 LG1 d5015      20.508   6.847  73.212  0.00  0.00     0.010 C 
ATOM     20  C21 LG1 d5015      24.169   7.630  73.853  0.00  0.00     0.020 C 
ENDROOT
BRANCH   4  21
ATOM     21  C7  LG1 d5015      21.562   0.750  74.559  0.00  0.00     0.128 C 
ATOM     22  O1  LG1 d5015      22.085   0.782  75.653  0.00  0.00    -0.298 OA
ATOM     23  C8  LG1 d5015      21.441  -0.539  73.822  0.00  0.00     0.091 C 
ENDBRANCH   4  21
TORSDOF 1
ENDMDL
MODEL 2
REMARK VINA RESULT:    -7.480      1.406      6.894
REMARK INTER + INTRA:          -8.079
REMARK INTER:                  -7.938
REMARK INTRA:                  -0.142
REMARK UNBOUND:                -0.162
REMARK  1 active torsions:
REMARK  status: ('A' for Active; 'I' for Inactive)
REMARK    1  A    between atoms: C7_7  and  C4_4 
ROOT
ATOM      1  C1  LG1 d5015      21.623   5.778  73.164  0.00  0.00    -0.004 C 
ATOM      2  C2  LG1 d5015      22.043   7.231  72.913  0.00  0.00    -0.001 C 
ATOM      3  C3  LG1 d5015      23.375   7.350  72.082  0.00  0.00    -0.030 C 
ATOM      4  C4  LG1 d5015      23.433   8.909  71.957  0.00  0.00     0.063 C 
ATOM      5  C5  LG1 d5015      21.947   9.353  71.723  0.00  0.00     0.013 C 
ATOM      6  C6  LG1 d5015      21.043   8.146  72.164  0.00  0.00     0.006 C 
ATOM      7  C9  LG1 d5015      23.277   6.708  70.653  0.00  0.00     0.016 C 
ATOM      8  C10 LG1 d5015      24.475   6.701  72.951  0.00  0.00     0.011 C 
ATOM      9  C11 LG1 d5015      24.132   5.222  73.281  0.00  0.00     0.007 C 
ATOM     10  C12 LG1 d5015      22.757   5.082  73.985  0.00  0.00     0.002 C 
ATOM     11  C13 LG1 d5015      22.433   3.580  74.325  0.00  0.00    -0.016 C 
ATOM     12  C14 LG1 d5015      21.014   3.516  75.023  0.00  0.00    -0.068 C 
ATOM     13  C15 LG1 d5015      20.769   2.830  76.124  0.00  0.00     0.053 C 
ATOM     14  C16 LG1 d5015      21.773   1.964  76.724  0.00  0.00     0.149 C 
ATOM     15  C17 LG1 d5015      23.115   1.755  76.029  0.00  0.00     0.084 C 
ATOM     16  C18 LG1 d5015      23.525   3.056  75.296  0.00  0.00     0.022 C 
ATOM     17  O2  LG1 d5015      21.520   1.333  77.765  0.00  0.00    -0.293 OA
ATOM     18  C19 LG1 d5015      19.881   4.322  74.397  0.00  0.00     0.035 C 
ATOM     19  C20 LG1 d5015      20.322   5.746  74.007  0.00  0.00     0.010 C 
ATOM     20  C21 LG1 d5015      22.336   2.675  73.038  0.00  0.00     0.020 C 
ENDROOT
BRANCH   4  21
ATOM     21  C7  LG1 d5015      24.442   9.437  70.923  0.00  0.00     0.128 C 
ATOM     22  O1  LG1 d5015      24.060   9.816  69.837  0.00  0.00    -0.298 OA
ATOM     23  C8  LG1 d5015      25.890   9.488  71.271  0.00  0.00     0.091 C 
ENDBRANCH   4  21
TORSDOF 1
ENDMDL
MODEL 3
REMARK VINA RESULT:    -7.328      1.115      7.199
REMARK INTER + INTRA:          -7.918
REMARK INTER:                  -8.450
REMARK INTRA:                   0.532
REMARK UNBOUND:                -0.162
REMARK  1 active torsions:
REMARK  status: ('A' for Active; 'I' for Inactive)
REMARK    1  A    between atoms: C7_7  and  C4_4 
ROOT
ATOM      1  C1  LG1 d5015      23.094   5.134  73.027  0.00  0.00    -0.004 C 
ATOM      2  C2  LG1 d5015      23.294   6.176  71.922  0.00  0.00    -0.001 C 
ATOM      3  C3  LG1 d5015      22.742   7.598  72.311  0.00  0.00    -0.030 C 
ATOM      4  C4  LG1 d5015      23.185   8.380  71.030  0.00  0.00     0.063 C 
ATOM      5  C5  LG1 d5015      24.603   7.809  70.676  0.00  0.00     0.013 C 
ATOM      6  C6  LG1 d5015      24.742   6.446  71.447  0.00  0.00     0.006 C 
ATOM      7  C9  LG1 d5015      23.442   8.213  73.574  0.00  0.00     0.016 C 
ATOM      8  C10 LG1 d5015      21.219   7.423  72.502  0.00  0.00     0.011 C 
ATOM      9  C11 LG1 d5015      20.907   6.364  73.596  0.00  0.00     0.007 C 
ATOM     10  C12 LG1 d5015      21.557   4.991  73.285  0.00  0.00     0.002 C 
ATOM     11  C13 LG1 d5015      21.219   3.928  74.394  0.00  0.00    -0.016 C 
ATOM     12  C14 LG1 d5015      21.928   2.564  74.018  0.00  0.00    -0.068 C 
ATOM     13  C15 LG1 d5015      21.323   1.390  74.047  0.00  0.00     0.053 C 
ATOM     14  C16 LG1 d5015      19.968   1.243  74.554  0.00  0.00     0.149 C 
ATOM     15  C17 LG1 d5015      19.243   2.441  75.160  0.00  0.00     0.084 C 
ATOM     16  C18 LG1 d5015      19.679   3.733  74.426  0.00  0.00     0.022 C 
ATOM     17  O2  LG1 d5015      19.417   0.128  74.564  0.00  0.00    -0.293 OA
ATOM     18  C19 LG1 d5015      23.384   2.624  73.568  0.00  0.00     0.035 C 
ATOM     19  C20 LG1 d5015      23.638   3.760  72.558  0.00  0.00     0.010 C 
ATOM     20  C21 LG1 d5015      21.769   4.338  75.814  0.00  0.00     0.020 C 
ENDROOT
BRANCH   4  21
ATOM     21  C7  LG1 d5015      23.110   9.911  71.148  0.00  0.00     0.128 C 
ATOM     22  O1  LG1 d5015      23.795  10.612  70.435  0.00  0.00    -0.298 OA
ATOM     23  C8  LG1 d5015      22.183  10.526  72.140  0.00  0.00     0.091 C 
ENDBRANCH   4  21
TORSDOF 1
ENDMDL
MODEL 4
REMARK VINA RESULT:    -6.689      2.331      7.764
REMARK INTER + INTRA:          -7.242
REMARK INTER:                  -7.042
REMARK INTRA:                  -0.200
REMARK UNBOUND:                -0.162
REMARK  1 active torsions:
REMARK  status: ('A' for Active; 'I' for Inactive)
REMARK    1  A    between atoms: C7_7  and  C4_4 
ROOT
ATOM      1  C1  LG1 d5015      21.552   2.632  75.039  0.00  0.00    -0.004 C 
ATOM      2  C2  LG1 d5015      22.341   3.251  73.880  0.00  0.00    -0.001 C 
ATOM      3  C3  LG1 d5015      21.917   4.735  73.572  0.00  0.00    -0.030 C 
ATOM      4  C4  LG1 d5015      22.953   5.044  72.440  0.00  0.00     0.063 C 
ATOM      5  C5  LG1 d5015      24.282   4.353  72.907  0.00  0.00     0.013 C 
ATOM      6  C6  LG1 d5015      23.882   3.314  74.016  0.00  0.00     0.006 C 
ATOM      7  C9  LG1 d5015      22.147   5.712  74.779  0.00  0.00     0.016 C 
ATOM      8  C10 LG1 d5015      20.438   4.670  73.132  0.00  0.00     0.011 C 
ATOM      9  C11 LG1 d5015      19.550   4.036  74.239  0.00  0.00     0.007 C 
ATOM     10  C12 LG1 d5015      20.039   2.620  74.642  0.00  0.00     0.002 C 
ATOM     11  C13 LG1 d5015      19.120   1.987  75.751  0.00  0.00    -0.016 C 
ATOM     12  C14 LG1 d5015      19.690   0.558  76.123  0.00  0.00    -0.068 C 
ATOM     13  C15 LG1 d5015      18.943  -0.526  76.223  0.00  0.00     0.053 C 
ATOM     14  C16 LG1 d5015      17.493  -0.466  76.118  0.00  0.00     0.149 C 
ATOM     15  C17 LG1 d5015      16.791   0.882  75.986  0.00  0.00     0.084 C 
ATOM     16  C18 LG1 d5015      17.686   1.852  75.175  0.00  0.00     0.022 C 
ATOM     17  O2  LG1 d5015      16.811  -1.502  76.209  0.00  0.00    -0.293 OA
ATOM     18  C19 LG1 d5015      21.194   0.431  76.343  0.00  0.00     0.035 C 
ATOM     19  C20 LG1 d5015      22.008   1.168  75.262  0.00  0.00     0.010 C 
ATOM     20  C21 LG1 d5015      19.119   2.824  77.087  0.00  0.00     0.020 C 
ENDROOT
BRANCH   4  21
ATOM     21  C7  LG1 d5015      23.086   6.531  72.072  0.00  0.00     0.128 C 
ATOM     22  O1  LG1 d5015      22.143   7.128  71.599  0.00  0.00    -0.298 OA
ATOM     23  C8  LG1 d5015      24.378   7.233  72.309  0.00  0.00     0.091 C 
ENDBRANCH   4  21
TORSDOF 1
ENDMDL
MODEL 5
REMARK VINA RESULT:    -6.470      2.066      7.538
REMARK INTER + INTRA:          -7.010
REMARK INTER:                  -6.848
REMARK INTRA:                  -0.162
REMARK UNBOUND:                -0.162
REMARK  1 active torsions:
REMARK  status: ('A' for Active; 'I' for Inactive)
REMARK    1  A    between atoms: C7_7  and  C4_4 
ROOT
ATOM      1  C1  LG1 d5015      20.454   3.042  74.075  0.00  0.00    -0.004 C 
ATOM      2  C2  LG1 d5015      20.797   4.536  74.107  0.00  0.00    -0.001 C 
ATOM      3  C3  LG1 d5015      22.247   4.845  73.581  0.00  0.00    -0.030 C 
ATOM      4  C4  LG1 d5015      22.204   6.406  73.677  0.00  0.00     0.063 C 
ATOM      5  C5  LG1 d5015      20.757   6.801  73.214  0.00  0.00     0.013 C 
ATOM      6  C6  LG1 d5015      19.886   5.496  73.303  0.00  0.00     0.006 C 
ATOM      7  C9  LG1 d5015      22.473   4.414  72.088  0.00  0.00     0.016 C 
ATOM      8  C10 LG1 d5015      23.212   4.135  74.557  0.00  0.00     0.011 C 
ATOM      9  C11 LG1 d5015      22.932   2.608  74.612  0.00  0.00     0.007 C 
ATOM     10  C12 LG1 d5015      21.465   2.294  75.006  0.00  0.00     0.002 C 
ATOM     11  C13 LG1 d5015      21.204   0.744  75.072  0.00  0.00    -0.016 C 
ATOM     12  C14 LG1 d5015      19.688   0.504  75.459  0.00  0.00    -0.068 C 
ATOM     13  C15 LG1 d5015      19.295  -0.347  76.389  0.00  0.00     0.053 C 
ATOM     14  C16 LG1 d5015      20.233  -1.236  77.056  0.00  0.00     0.149 C 
ATOM     15  C17 LG1 d5015      21.695  -1.272  76.620  0.00  0.00     0.084 C 
ATOM     16  C18 LG1 d5015      22.131   0.142  76.162  0.00  0.00     0.022 C 
ATOM     17  O2  LG1 d5015      19.839  -2.025  77.933  0.00  0.00    -0.293 OA
ATOM     18  C19 LG1 d5015      18.633   1.332  74.734  0.00  0.00     0.035 C 
ATOM     19  C20 LG1 d5015      19.025   2.819  74.631  0.00  0.00     0.010 C 
ATOM     20  C21 LG1 d5015      21.425   0.033  73.682  0.00  0.00     0.020 C 
ENDROOT
BRANCH   4  21
ATOM     21  C7  LG1 d5015      23.344   7.132  72.944  0.00  0.00     0.128 C 
ATOM     22  O1  LG1 d5015      24.499   6.882  73.215  0.00  0.00    -0.298 OA
ATOM     23  C8  LG1 d5015      23.018   8.137  71.893  0.00  0.00     0.091 C 
ENDBRANCH   4  21
TORSDOF 1
ENDMDL
