MODEL 1
REMARK VINA RESULT:    -8.530      0.000      0.000
REMARK INTER + INTRA:          -9.205
REMARK INTER:                  -9.684
REMARK INTRA:                   0.479
REMARK UNBOUND:                -0.176
REMARK  1 active torsions:
REMARK  status: ('A' for Active; 'I' for Inactive)
REMARK    1  A    between atoms: C7_7  and  C4_4 
ROOT
ATOM      1  C1  LG1 d5015      21.590   5.831  73.629  0.00  0.00    -0.004 C 
ATOM      2  C2  LG1 d5015      20.955   4.437  73.595  0.00  0.00    -0.001 C 
ATOM      3  C3  LG1 d5015      21.976   3.289  73.940  0.00  0.00    -0.030 C 
ATOM      4  C4  LG1 d5015      20.988   2.076  73.894  0.00  0.00     0.063 C 
ATOM      5  C5  LG1 d5015      19.664   2.606  74.549  0.00  0.00     0.013 C 
ATOM      6  C6  LG1 d5015      19.754   4.175  74.535  0.00  0.00     0.006 C 
ATOM      7  C9  LG1 d5015      22.591   3.415  75.379  0.00  0.00     0.016 C 
ATOM      8  C10 LG1 d5015      23.048   3.328  72.829  0.00  0.00     0.011 C 
ATOM      9  C11 LG1 d5015      23.742   4.717  72.767  0.00  0.00     0.007 C 
ATOM     10  C12 LG1 d5015      22.728   5.871  72.556  0.00  0.00     0.002 C 
ATOM     11  C13 LG1 d5015      23.449   7.267  72.480  0.00  0.00    -0.016 C 
ATOM     12  C14 LG1 d5015      22.352   8.391  72.283  0.00  0.00    -0.068 C 
ATOM     13  C15 LG1 d5015      22.445   9.357  71.387  0.00  0.00     0.053 C 
ATOM     14  C16 LG1 d5015      23.643   9.538  70.582  0.00  0.00     0.149 C 
ATOM     15  C17 LG1 d5015      24.869   8.663  70.826  0.00  0.00     0.084 C 
ATOM     16  C18 LG1 d5015      24.414   7.249  71.264  0.00  0.00     0.022 C 
ATOM     17  O2  LG1 d5015      23.704  10.452  69.740  0.00  0.00    -0.293 OA
ATOM     18  C19 LG1 d5015      21.107   8.326  73.160  0.00  0.00     0.035 C 
ATOM     19  C20 LG1 d5015      20.531   6.899  73.254  0.00  0.00     0.010 C 
ATOM     20  C21 LG1 d5015      24.218   7.625  73.809  0.00  0.00     0.020 C 
ENDROOT
BRANCH   4  21
ATOM     21  C7  LG1 d5015      21.536   0.772  74.496  0.00  0.00     0.128 C 
ATOM     22  O1  LG1 d5015      22.065   0.778  75.587  0.00  0.00    -0.298 OA
ATOM     23  C8  LG1 d5015      21.405  -0.500  73.732  0.00  0.00     0.091 C 
ENDBRANCH   4  21
TORSDOF 1
ENDMDL
MODEL 2
REMARK VINA RESULT:    -7.474      1.408      6.895
REMARK INTER + INTRA:          -8.087
REMARK INTER:                  -7.946
REMARK INTRA:                  -0.141
REMARK UNBOUND:                -0.176
REMARK  1 active torsions:
REMARK  status: ('A' for Active; 'I' for Inactive)
REMARK    1  A    between atoms: C7_7  and  C4_4 
ROOT
ATOM      1  C1  LG1 d5015      21.620   5.783  73.162  0.00  0.00    -0.004 C 
ATOM      2  C2  LG1 d5015      22.049   7.232  72.909  0.00  0.00    -0.001 C 
ATOM      3  C3  LG1 d5015      23.397   7.341  72.103  0.00  0.00    -0.030 C 
ATOM      4  C4  LG1 d5015      23.463   8.899  71.968  0.00  0.00     0.063 C 
ATOM      5  C5  LG1 d5015      21.983   9.347  71.703  0.00  0.00     0.013 C 
ATOM      6  C6  LG1 d5015      21.067   8.145  72.136  0.00  0.00     0.006 C 
ATOM      7  C9  LG1 d5015      23.324   6.690  70.677  0.00  0.00     0.016 C 
ATOM      8  C10 LG1 d5015      24.479   6.695  72.997  0.00  0.00     0.011 C 
ATOM      9  C11 LG1 d5015      24.124   5.219  73.330  0.00  0.00     0.007 C 
ATOM     10  C12 LG1 d5015      22.736   5.088  74.010  0.00  0.00     0.002 C 
ATOM     11  C13 LG1 d5015      22.401   3.590  74.354  0.00  0.00    -0.016 C 
ATOM     12  C14 LG1 d5015      20.969   3.535  75.025  0.00  0.00    -0.068 C 
ATOM     13  C15 LG1 d5015      20.700   2.857  76.126  0.00  0.00     0.053 C 
ATOM     14  C16 LG1 d5015      21.690   1.993  76.750  0.00  0.00     0.149 C 
ATOM     15  C17 LG1 d5015      23.044   1.774  76.082  0.00  0.00     0.084 C 
ATOM     16  C18 LG1 d5015      23.473   3.069  75.348  0.00  0.00     0.022 C 
ATOM     17  O2  LG1 d5015      21.415   1.370  77.791  0.00  0.00    -0.293 OA
ATOM     18  C19 LG1 d5015      19.850   4.341  74.372  0.00  0.00     0.035 C 
ATOM     19  C20 LG1 d5015      20.303   5.761  73.980  0.00  0.00     0.010 C 
ATOM     20  C21 LG1 d5015      22.325   2.677  73.071  0.00  0.00     0.020 C 
ENDROOT
BRANCH   4  21
ATOM     21  C7  LG1 d5015      24.493   9.417  70.950  0.00  0.00     0.128 C 
ATOM     22  O1  LG1 d5015      24.134   9.783  69.851  0.00  0.00    -0.298 OA
ATOM     23  C8  LG1 d5015      25.933   9.474  71.328  0.00  0.00     0.091 C 
ENDBRANCH   4  21
TORSDOF 1
ENDMDL
MODEL 3
REMARK VINA RESULT:    -7.274      1.116      7.200
REMARK INTER + INTRA:          -7.875
REMARK INTER:                  -8.411
REMARK INTRA:                   0.536
REMARK UNBOUND:                -0.176
REMARK  1 active torsions:
REMARK  status: ('A' for Active; 'I' for Inactive)
REMARK    1  A    between atoms: C7_7  and  C4_4 
ROOT
ATOM      1  C1  LG1 d5015      23.125   5.161  73.059  0.00  0.00    -0.004 C 
ATOM      2  C2  LG1 d5015      23.327   6.195  71.946  0.00  0.00    -0.001 C 
ATOM      3  C3  LG1 d5015      22.763   7.617  72.319  0.00  0.00    -0.030 C 
ATOM      4  C4  LG1 d5015      23.211   8.390  71.034  0.00  0.00     0.063 C 
ATOM      5  C5  LG1 d5015      24.635   7.825  70.695  0.00  0.00     0.013 C 
ATOM      6  C6  LG1 d5015      24.777   6.471  71.479  0.00  0.00     0.006 C 
ATOM      7  C9  LG1 d5015      23.450   8.248  73.581  0.00  0.00     0.016 C 
ATOM      8  C10 LG1 d5015      21.240   7.434  72.499  0.00  0.00     0.011 C 
ATOM      9  C11 LG1 d5015      20.927   6.383  73.600  0.00  0.00     0.007 C 
ATOM     10  C12 LG1 d5015      21.588   5.011  73.306  0.00  0.00     0.002 C 
ATOM     11  C13 LG1 d5015      21.248   3.955  74.422  0.00  0.00    -0.016 C 
ATOM     12  C14 LG1 d5015      21.969   2.593  74.064  0.00  0.00    -0.068 C 
ATOM     13  C15 LG1 d5015      21.371   1.416  74.098  0.00  0.00     0.053 C 
ATOM     14  C16 LG1 d5015      20.013   1.264  74.596  0.00  0.00     0.149 C 
ATOM     15  C17 LG1 d5015      19.276   2.463  75.186  0.00  0.00     0.084 C 
ATOM     16  C18 LG1 d5015      19.709   3.751  74.444  0.00  0.00     0.022 C 
ATOM     17  O2  LG1 d5015      19.469   0.145  74.612  0.00  0.00    -0.293 OA
ATOM     18  C19 LG1 d5015      23.428   2.659  73.624  0.00  0.00     0.035 C 
ATOM     19  C20 LG1 d5015      23.682   3.787  72.606  0.00  0.00     0.010 C 
ATOM     20  C21 LG1 d5015      21.785   4.381  75.842  0.00  0.00     0.020 C 
ENDROOT
BRANCH   4  21
ATOM     21  C7  LG1 d5015      23.125   9.922  71.138  0.00  0.00     0.128 C 
ATOM     22  O1  LG1 d5015      23.812  10.622  70.424  0.00  0.00    -0.298 OA
ATOM     23  C8  LG1 d5015      22.186  10.539  72.116  0.00  0.00     0.091 C 
ENDBRANCH   4  21
TORSDOF 1
ENDMDL
MODEL 4
REMARK VINA RESULT:    -6.692      2.334      7.740
REMARK INTER + INTRA:          -7.259
REMARK INTER:                  -7.057
REMARK INTRA:                  -0.202
REMARK UNBOUND:                -0.176
REMARK  1 active torsions:
REMARK  status: ('A' for Active; 'I' for Inactive)
REMARK    1  A    between atoms: C7_7  and  C4_4 
ROOT
ATOM      1  C1  LG1 d5015      21.561   2.685  75.054  0.00  0.00    -0.004 C 
ATOM      2  C2  LG1 d5015      22.389   3.272  73.905  0.00  0.00    -0.001 C 
ATOM      3  C3  LG1 d5015      21.981   4.750  73.547  0.00  0.00    -0.030 C 
ATOM      4  C4  LG1 d5015      23.054   5.027  72.442  0.00  0.00     0.063 C 
ATOM      5  C5  LG1 d5015      24.365   4.344  72.968  0.00  0.00     0.013 C 
ATOM      6  C6  LG1 d5015      23.924   3.334  74.090  0.00  0.00     0.006 C 
ATOM      7  C9  LG1 d5015      22.175   5.756  74.736  0.00  0.00     0.016 C 
ATOM      8  C10 LG1 d5015      20.516   4.679  73.062  0.00  0.00     0.011 C 
ATOM      9  C11 LG1 d5015      19.591   4.075  74.155  0.00  0.00     0.007 C 
ATOM     10  C12 LG1 d5015      20.061   2.668  74.609  0.00  0.00     0.002 C 
ATOM     11  C13 LG1 d5015      19.105   2.066  75.703  0.00  0.00    -0.016 C 
ATOM     12  C14 LG1 d5015      19.657   0.645  76.128  0.00  0.00    -0.068 C 
ATOM     13  C15 LG1 d5015      18.902  -0.434  76.231  0.00  0.00     0.053 C 
ATOM     14  C16 LG1 d5015      17.457  -0.372  76.079  0.00  0.00     0.149 C 
ATOM     15  C17 LG1 d5015      16.765   0.975  75.890  0.00  0.00     0.084 C 
ATOM     16  C18 LG1 d5015      17.689   1.921  75.084  0.00  0.00     0.022 C 
ATOM     17  O2  LG1 d5015      16.768  -1.404  76.173  0.00  0.00    -0.293 OA
ATOM     18  C19 LG1 d5015      21.152   0.519  76.400  0.00  0.00     0.035 C 
ATOM     19  C20 LG1 d5015      22.003   1.225  75.327  0.00  0.00     0.010 C 
ATOM     20  C21 LG1 d5015      19.064   2.937  77.017  0.00  0.00     0.020 C 
ENDROOT
BRANCH   4  21
ATOM     21  C7  LG1 d5015      23.204   6.504  72.042  0.00  0.00     0.128 C 
ATOM     22  O1  LG1 d5015      22.287   7.087  71.504  0.00  0.00    -0.298 OA
ATOM     23  C8  LG1 d5015      24.482   7.215  72.327  0.00  0.00     0.091 C 
ENDBRANCH   4  21
TORSDOF 1
ENDMDL
MODEL 5
REMARK VINA RESULT:    -6.459      2.082      7.554
REMARK INTER + INTRA:          -7.013
REMARK INTER:                  -6.837
REMARK INTRA:                  -0.176
REMARK UNBOUND:                -0.176
REMARK  1 active torsions:
REMARK  status: ('A' for Active; 'I' for Inactive)
REMARK    1  A    between atoms: C7_7  and  C4_4 
ROOT
ATOM      1  C1  LG1 d5015      20.448   3.046  74.095  0.00  0.00    -0.004 C 
ATOM      2  C2  LG1 d5015      20.789   4.540  74.127  0.00  0.00    -0.001 C 
ATOM      3  C3  LG1 d5015      22.235   4.852  73.589  0.00  0.00    -0.030 C 
ATOM      4  C4  LG1 d5015      22.190   6.413  73.689  0.00  0.00     0.063 C 
ATOM      5  C5  LG1 d5015      20.739   6.807  73.239  0.00  0.00     0.013 C 
ATOM      6  C6  LG1 d5015      19.871   5.500  73.333  0.00  0.00     0.006 C 
ATOM      7  C9  LG1 d5015      22.449   4.424  72.094  0.00  0.00     0.016 C 
ATOM      8  C10 LG1 d5015      23.209   4.143  74.556  0.00  0.00     0.011 C 
ATOM      9  C11 LG1 d5015      22.931   2.615  74.611  0.00  0.00     0.007 C 
ATOM     10  C12 LG1 d5015      21.468   2.298  75.016  0.00  0.00     0.002 C 
ATOM     11  C13 LG1 d5015      21.210   0.748  75.082  0.00  0.00    -0.016 C 
ATOM     12  C14 LG1 d5015      19.697   0.505  75.481  0.00  0.00    -0.068 C 
ATOM     13  C15 LG1 d5015      19.313  -0.349  76.413  0.00  0.00     0.053 C 
ATOM     14  C16 LG1 d5015      20.258  -1.238  77.070  0.00  0.00     0.149 C 
ATOM     15  C17 LG1 d5015      21.716  -1.270  76.622  0.00  0.00     0.084 C 
ATOM     16  C18 LG1 d5015      22.147   0.145  76.163  0.00  0.00     0.022 C 
ATOM     17  O2  LG1 d5015      19.873  -2.029  77.950  0.00  0.00    -0.293 OA
ATOM     18  C19 LG1 d5015      18.635   1.333  74.766  0.00  0.00     0.035 C 
ATOM     19  C20 LG1 d5015      19.024   2.820  74.663  0.00  0.00     0.010 C 
ATOM     20  C21 LG1 d5015      21.420   0.039  73.689  0.00  0.00     0.020 C 
ENDROOT
BRANCH   4  21
ATOM     21  C7  LG1 d5015      23.323   7.142  72.947  0.00  0.00     0.128 C 
ATOM     22  O1  LG1 d5015      24.480   6.919  73.232  0.00  0.00    -0.298 OA
ATOM     23  C8  LG1 d5015      22.987   8.117  71.872  0.00  0.00     0.091 C 
ENDBRANCH   4  21
TORSDOF 1
ENDMDL
