REMARK INTER + INTRA:          -7.921
REMARK INTER:                  -7.761
REMARK INTRA:                  -0.161
REMARK UNBOUND:                -0.163
REMARK  1 active torsions:
REMARK  status: ('A' for Active; 'I' for Inactive)
REMARK    1  A    between atoms: C10_13  and  C11_14 
ROOT
ATOM      1  C1  LG1 d5015      21.571   3.833  73.995  0.00  0.00     0.018 C 
ATOM      2  C2  LG1 d5015      21.144   5.218  73.673  0.00  0.00     0.193 C 
ATOM      3  C3  LG1 d5015      22.213   6.074  73.118  0.00  0.00     0.049 A 
ATOM      4  C4  LG1 d5015      21.972   7.428  72.877  0.00  0.00     0.037 A 
ATOM      5  C5  LG1 d5015      22.967   8.216  72.297  0.00  0.00     0.012 A 
ATOM      6  C6  LG1 d5015      24.195   7.653  71.948  0.00  0.00     0.022 A 
ATOM      7  C7  LG1 d5015      24.434   6.298  72.185  0.00  0.00     0.039 A 
ATOM      8  C8  LG1 d5015      23.451   5.511  72.785  0.00  0.00     0.083 A 
ATOM      9  O1  LG1 d5015      23.746   4.187  72.973  0.00  0.00    -0.346 OA
ATOM     10  C9  LG1 d5015      23.045   3.604  74.077  0.00  0.00     0.218 C 
ATOM     11 BR1  LG1 d5015      22.658  10.057  71.997  0.00  0.00    -0.051 Br
ATOM     12  O2  LG1 d5015      20.008   5.635  73.846  0.00  0.00    -0.287 OA
ATOM     13  C10 LG1 d5015      20.643   2.889  74.196  0.00  0.00     0.025 C 
ENDROOT
BRANCH  13  14
ATOM     14  C11 LG1 d5015      20.930   1.522  74.512  0.00  0.00    -0.029 A 
ATOM     15  C14 LG1 d5015      21.109   1.074  75.801  0.00  0.00     0.061 A 
ATOM     16  S1  LG1 d5015      21.435  -0.605  75.858  0.00  0.00    -0.113 SA
ATOM     17  C13 LG1 d5015      21.339  -0.738  74.155  0.00  0.00     0.050 A 
ATOM     18  C12 LG1 d5015      21.063   0.472  73.557  0.00  0.00     0.019 A 
ENDBRANCH  13  14
TORSDOF 1
ENDMDL
