REMARK INTER + INTRA:          -6.637
REMARK INTER:                  -6.475
REMARK INTRA:                  -0.163
REMARK UNBOUND:                -0.163
REMARK  1 active torsions:
REMARK  status: ('A' for Active; 'I' for Inactive)
REMARK    1  A    between atoms: C10_13  and  C11_14 
ROOT
ATOM      1  C1  LG1 d5015      22.140   1.728  75.616  0.00  0.00     0.018 C 
ATOM      2  C2  LG1 d5015      22.311   0.757  76.725  0.00  0.00     0.193 C 
ATOM      3  C3  LG1 d5015      21.650  -0.547  76.504  0.00  0.00     0.049 A 
ATOM      4  C4  LG1 d5015      21.641  -1.507  77.518  0.00  0.00     0.037 A 
ATOM      5  C5  LG1 d5015      21.068  -2.757  77.280  0.00  0.00     0.012 A 
ATOM      6  C6  LG1 d5015      20.516  -3.052  76.033  0.00  0.00     0.022 A 
ATOM      7  C7  LG1 d5015      20.529  -2.093  75.019  0.00  0.00     0.039 A 
ATOM      8  C8  LG1 d5015      21.081  -0.834  75.258  0.00  0.00     0.083 A 
ATOM      9  O1  LG1 d5015      21.076   0.053  74.214  0.00  0.00    -0.346 OA
ATOM     10  C9  LG1 d5015      21.053   1.421  74.637  0.00  0.00     0.218 C 
ATOM     11 BR1  LG1 d5015      21.024  -4.052  78.658  0.00  0.00    -0.051 Br
ATOM     12  O2  LG1 d5015      22.941   0.996  77.745  0.00  0.00    -0.287 OA
ATOM     13  C10 LG1 d5015      22.938   2.801  75.553  0.00  0.00     0.025 C 
ENDROOT
BRANCH  13  14
ATOM     14  C11 LG1 d5015      22.871   3.805  74.534  0.00  0.00    -0.029 A 
ATOM     15  C14 LG1 d5015      22.053   4.909  74.625  0.00  0.00     0.061 A 
ATOM     16  S1  LG1 d5015      22.194   5.927  73.256  0.00  0.00    -0.113 SA
ATOM     17  C13 LG1 d5015      23.350   4.892  72.536  0.00  0.00     0.050 A 
ATOM     18  C12 LG1 d5015      23.623   3.795  73.323  0.00  0.00     0.019 A 
ENDBRANCH  13  14
TORSDOF 1
ENDMDL
