REMARK INTER + INTRA:          -7.942
REMARK INTER:                  -7.779
REMARK INTRA:                  -0.163
REMARK UNBOUND:                 0.015
REMARK  1 active torsions:
REMARK  status: ('A' for Active; 'I' for Inactive)
REMARK    1  A    between atoms: C10_13  and  C11_14 
ROOT
ATOM      1  C1  LG1 d5015      21.571   3.840  74.011  0.00  0.00     0.018 C 
ATOM      2  C2  LG1 d5015      21.148   5.224  73.682  0.00  0.00     0.193 C 
ATOM      3  C3  LG1 d5015      22.224   6.082  73.142  0.00  0.00     0.049 A 
ATOM      4  C4  LG1 d5015      21.985   7.436  72.898  0.00  0.00     0.037 A 
ATOM      5  C5  LG1 d5015      22.988   8.224  72.332  0.00  0.00     0.012 A 
ATOM      6  C6  LG1 d5015      24.221   7.662  72.001  0.00  0.00     0.022 A 
ATOM      7  C7  LG1 d5015      24.458   6.308  72.242  0.00  0.00     0.039 A 
ATOM      8  C8  LG1 d5015      23.468   5.520  72.828  0.00  0.00     0.083 A 
ATOM      9  O1  LG1 d5015      23.761   4.196  73.020  0.00  0.00    -0.346 OA
ATOM     10  C9  LG1 d5015      23.045   3.613  74.113  0.00  0.00     0.218 C 
ATOM     11 BR1  LG1 d5015      22.681  10.066  72.028  0.00  0.00    -0.051 Br
ATOM     12  O2  LG1 d5015      20.009   5.641  73.838  0.00  0.00    -0.287 OA
ATOM     13  C10 LG1 d5015      20.642   2.896  74.198  0.00  0.00     0.025 C 
ENDROOT
BRANCH  13  14
ATOM     14  C11 LG1 d5015      20.925   1.529  74.517  0.00  0.00    -0.029 A 
ATOM     15  C14 LG1 d5015      21.078   1.079  75.810  0.00  0.00     0.061 A 
ATOM     16  S1  LG1 d5015      21.408  -0.599  75.872  0.00  0.00    -0.113 SA
ATOM     17  C13 LG1 d5015      21.347  -0.729  74.165  0.00  0.00     0.050 A 
ATOM     18  C12 LG1 d5015      21.080   0.480  73.564  0.00  0.00     0.019 A 
ENDBRANCH  13  14
TORSDOF 1
ENDMDL
