MODEL 1
REMARK VINA RESULT:    -6.208      0.000      0.000
REMARK INTER + INTRA:          -6.762
REMARK INTER:                  -6.578
REMARK INTRA:                  -0.184
REMARK UNBOUND:                -0.192
REMARK  1 active torsions:
REMARK  status: ('A' for Active; 'I' for Inactive)
REMARK    1  A    between atoms: C1_1  and  N1_10 
ROOT
ATOM      1  C1  LG1 d5015      22.716   6.743  72.499  0.00  0.00     0.056 A 
ATOM      2  C2  LG1 d5015      21.429   7.154  72.846  0.00  0.00    -0.033 A 
ATOM      3  C3  LG1 d5015      20.602   6.308  73.584  0.00  0.00     0.028 A 
ATOM      4  C4  LG1 d5015      21.061   5.051  73.976  0.00  0.00     0.012 A 
ATOM      5  C5  LG1 d5015      22.349   4.638  73.628  0.00  0.00     0.028 A 
ATOM      6  C6  LG1 d5015      23.174   5.485  72.890  0.00  0.00    -0.033 A 
ATOM      7  C7  LG1 d5015      24.548   5.016  72.533  0.00  0.00     0.050 C 
ATOM      8 BR1  LG1 d5015      19.939   3.904  74.975  0.00  0.00    -0.051 Br
ATOM      9  C8  LG1 d5015      20.910   8.496  72.442  0.00  0.00     0.050 C 
ENDROOT
BRANCH   1  10
ATOM     10  N1  LG1 d5015      23.568   7.614  71.741  0.00  0.00    -0.265 N 
ATOM     11  C11 LG1 d5015      24.357   8.619  72.300  0.00  0.00     0.148 C 
ATOM     12  S2  LG1 d5015      24.725   8.943  73.903  0.00  0.00    -0.052 SA
ATOM     13  S1  LG1 d5015      25.100   9.563  71.015  0.00  0.00    -0.090 SA
ATOM     14  C10 LG1 d5015      24.598   8.427  69.722  0.00  0.00     0.185 C 
ATOM     15  C9  LG1 d5015      23.616   7.478  70.346  0.00  0.00     0.239 C 
ATOM     16  O1  LG1 d5015      22.955   6.713  69.647  0.00  0.00    -0.272 OA
ENDBRANCH   1  10
TORSDOF 1
ENDMDL
MODEL 2
REMARK VINA RESULT:    -5.888      1.694      2.205
REMARK INTER + INTRA:          -6.424
REMARK INTER:                  -6.223
REMARK INTRA:                  -0.201
REMARK UNBOUND:                -0.192
REMARK  1 active torsions:
REMARK  status: ('A' for Active; 'I' for Inactive)
REMARK    1  A    between atoms: C1_1  and  N1_10 
ROOT
ATOM      1  C1  LG1 d5015      23.029   6.910  72.689  0.00  0.00     0.056 A 
ATOM      2  C2  LG1 d5015      21.701   7.280  72.896  0.00  0.00    -0.033 A 
ATOM      3  C3  LG1 d5015      20.771   6.330  73.321  0.00  0.00     0.028 A 
ATOM      4  C4  LG1 d5015      21.169   5.012  73.539  0.00  0.00     0.012 A 
ATOM      5  C5  LG1 d5015      22.500   4.641  73.330  0.00  0.00     0.028 A 
ATOM      6  C6  LG1 d5015      23.428   5.591  72.905  0.00  0.00    -0.033 A 
ATOM      7  C7  LG1 d5015      24.844   5.164  72.690  0.00  0.00     0.050 C 
ATOM      8 BR1  LG1 d5015      19.909   3.725  74.113  0.00  0.00    -0.051 Br
ATOM      9  C8  LG1 d5015      21.244   8.685  72.673  0.00  0.00     0.050 C 
ENDROOT
BRANCH   1  10
ATOM     10  N1  LG1 d5015      23.987   7.887  72.253  0.00  0.00    -0.265 N 
ATOM     11  C11 LG1 d5015      24.323   8.111  70.918  0.00  0.00     0.148 C 
ATOM     12  S2  LG1 d5015      23.609   7.547  69.510  0.00  0.00    -0.052 SA
ATOM     13  S1  LG1 d5015      25.657   9.255  70.835  0.00  0.00    -0.090 SA
ATOM     14  C10 LG1 d5015      25.571   9.670  72.577  0.00  0.00     0.185 C 
ATOM     15  C9  LG1 d5015      24.652   8.666  73.210  0.00  0.00     0.239 C 
ATOM     16  O1  LG1 d5015      24.562   8.584  74.432  0.00  0.00    -0.272 OA
ENDBRANCH   1  10
TORSDOF 1
ENDMDL
MODEL 3
REMARK VINA RESULT:    -5.678      6.014      7.745
REMARK INTER + INTRA:          -6.202
REMARK INTER:                  -6.026
REMARK INTRA:                  -0.176
REMARK UNBOUND:                -0.192
REMARK  1 active torsions:
REMARK  status: ('A' for Active; 'I' for Inactive)
REMARK    1  A    between atoms: C1_1  and  N1_10 
ROOT
ATOM      1  C1  LG1 d5015      20.912   1.848  75.039  0.00  0.00     0.056 A 
ATOM      2  C2  LG1 d5015      20.049   2.467  74.135  0.00  0.00    -0.033 A 
ATOM      3  C3  LG1 d5015      20.300   3.773  73.714  0.00  0.00     0.028 A 
ATOM      4  C4  LG1 d5015      21.414   4.460  74.196  0.00  0.00     0.012 A 
ATOM      5  C5  LG1 d5015      22.278   3.841  75.101  0.00  0.00     0.028 A 
ATOM      6  C6  LG1 d5015      22.026   2.536  75.522  0.00  0.00    -0.033 A 
ATOM      7  C7  LG1 d5015      22.968   1.899  76.491  0.00  0.00     0.050 C 
ATOM      8 BR1  LG1 d5015      21.753   6.230  73.626  0.00  0.00    -0.051 Br
ATOM      9  C8  LG1 d5015      18.848   1.756  73.600  0.00  0.00     0.050 C 
ENDROOT
BRANCH   1  10
ATOM     10  N1  LG1 d5015      20.655   0.504  75.471  0.00  0.00    -0.265 N 
ATOM     11  C11 LG1 d5015      19.990   0.176  76.653  0.00  0.00     0.148 C 
ATOM     12  S2  LG1 d5015      19.137   1.145  77.722  0.00  0.00    -0.052 SA
ATOM     13  S1  LG1 d5015      20.048  -1.566  76.892  0.00  0.00    -0.090 SA
ATOM     14  C10 LG1 d5015      20.701  -1.894  75.255  0.00  0.00     0.185 C 
ATOM     15  C9  LG1 d5015      21.105  -0.565  74.684  0.00  0.00     0.239 C 
ATOM     16  O1  LG1 d5015      21.769  -0.504  73.652  0.00  0.00    -0.272 OA
ENDBRANCH   1  10
TORSDOF 1
ENDMDL
MODEL 4
REMARK VINA RESULT:    -5.673      6.007      7.908
REMARK INTER + INTRA:          -6.197
REMARK INTER:                  -6.016
REMARK INTRA:                  -0.180
REMARK UNBOUND:                -0.192
REMARK  1 active torsions:
REMARK  status: ('A' for Active; 'I' for Inactive)
REMARK    1  A    between atoms: C1_1  and  N1_10 
ROOT
ATOM      1  C1  LG1 d5015      20.897   1.864  75.027  0.00  0.00     0.056 A 
ATOM      2  C2  LG1 d5015      22.009   2.555  75.509  0.00  0.00    -0.033 A 
ATOM      3  C3  LG1 d5015      22.255   3.861  75.085  0.00  0.00     0.028 A 
ATOM      4  C4  LG1 d5015      21.391   4.476  74.180  0.00  0.00     0.012 A 
ATOM      5  C5  LG1 d5015      20.278   3.783  73.697  0.00  0.00     0.028 A 
ATOM      6  C6  LG1 d5015      20.033   2.478  74.121  0.00  0.00    -0.033 A 
ATOM      7  C7  LG1 d5015      18.834   1.763  73.587  0.00  0.00     0.050 C 
ATOM      8 BR1  LG1 d5015      21.726   6.245  73.605  0.00  0.00    -0.051 Br
ATOM      9  C8  LG1 d5015      22.952   1.923  76.481  0.00  0.00     0.050 C 
ENDROOT
BRANCH   1  10
ATOM     10  N1  LG1 d5015      20.642   0.520  75.464  0.00  0.00    -0.265 N 
ATOM     11  C11 LG1 d5015      19.971   0.195  76.643  0.00  0.00     0.148 C 
ATOM     12  S2  LG1 d5015      19.108   1.165  77.702  0.00  0.00    -0.052 SA
ATOM     13  S1  LG1 d5015      20.034  -1.546  76.890  0.00  0.00    -0.090 SA
ATOM     14  C10 LG1 d5015      20.698  -1.878  75.258  0.00  0.00     0.185 C 
ATOM     15  C9  LG1 d5015      21.101  -0.551  74.684  0.00  0.00     0.239 C 
ATOM     16  O1  LG1 d5015      21.771  -0.491  73.656  0.00  0.00    -0.272 OA
ENDBRANCH   1  10
TORSDOF 1
ENDMDL
MODEL 5
REMARK VINA RESULT:    -5.529      5.990      7.731
REMARK INTER + INTRA:          -6.044
REMARK INTER:                  -5.852
REMARK INTRA:                  -0.192
REMARK UNBOUND:                -0.192
REMARK  1 active torsions:
REMARK  status: ('A' for Active; 'I' for Inactive)
REMARK    1  A    between atoms: C1_1  and  N1_10 
ROOT
ATOM      1  C1  LG1 d5015      21.330   2.312  75.282  0.00  0.00     0.056 A 
ATOM      2  C2  LG1 d5015      20.683   2.873  74.181  0.00  0.00    -0.033 A 
ATOM      3  C3  LG1 d5015      21.376   3.733  73.329  0.00  0.00     0.028 A 
ATOM      4  C4  LG1 d5015      22.716   4.032  73.577  0.00  0.00     0.012 A 
ATOM      5  C5  LG1 d5015      23.363   3.471  74.679  0.00  0.00     0.028 A 
ATOM      6  C6  LG1 d5015      22.670   2.612  75.531  0.00  0.00    -0.033 A 
ATOM      7  C7  LG1 d5015      23.390   2.026  76.702  0.00  0.00     0.050 C 
ATOM      8 BR1  LG1 d5015      23.654   5.198  72.423  0.00  0.00    -0.051 Br
ATOM      9  C8  LG1 d5015      19.249   2.571  73.889  0.00  0.00     0.050 C 
ENDROOT
BRANCH   1  10
ATOM     10  N1  LG1 d5015      20.618   1.426  76.159  0.00  0.00    -0.265 N 
ATOM     11  C11 LG1 d5015      20.467   0.058  75.934  0.00  0.00     0.148 C 
ATOM     12  S2  LG1 d5015      21.206  -0.945  74.813  0.00  0.00    -0.052 SA
ATOM     13  S1  LG1 d5015      19.381  -0.616  77.143  0.00  0.00    -0.090 SA
ATOM     14  C10 LG1 d5015      19.363   0.875  78.138  0.00  0.00     0.185 C 
ATOM     15  C9  LG1 d5015      20.012   1.947  77.311  0.00  0.00     0.239 C 
ATOM     16  O1  LG1 d5015      19.960   3.123  77.660  0.00  0.00    -0.272 OA
ENDBRANCH   1  10
TORSDOF 1
ENDMDL
