MODEL 1
REMARK VINA RESULT:    -6.210      0.000      0.000
REMARK INTER + INTRA:          -6.775
REMARK INTER:                  -6.599
REMARK INTRA:                  -0.176
REMARK UNBOUND:                -0.202
REMARK  1 active torsions:
REMARK  status: ('A' for Active; 'I' for Inactive)
REMARK    1  A    between atoms: C1_1  and  N1_10 
ROOT
ATOM      1  C1  LG1 d5015      22.707   6.728  72.483  0.00  0.00     0.056 A 
ATOM      2  C2  LG1 d5015      21.421   7.134  72.842  0.00  0.00    -0.033 A 
ATOM      3  C3  LG1 d5015      20.599   6.277  73.574  0.00  0.00     0.028 A 
ATOM      4  C4  LG1 d5015      21.062   5.016  73.947  0.00  0.00     0.012 A 
ATOM      5  C5  LG1 d5015      22.348   4.609  73.587  0.00  0.00     0.028 A 
ATOM      6  C6  LG1 d5015      23.169   5.466  72.856  0.00  0.00    -0.033 A 
ATOM      7  C7  LG1 d5015      24.541   5.003  72.485  0.00  0.00     0.050 C 
ATOM      8 BR1  LG1 d5015      19.946   3.854  74.938  0.00  0.00    -0.051 Br
ATOM      9  C8  LG1 d5015      20.898   8.480  72.459  0.00  0.00     0.050 C 
ENDROOT
BRANCH   1  10
ATOM     10  N1  LG1 d5015      23.554   7.610  71.731  0.00  0.00    -0.265 N 
ATOM     11  C11 LG1 d5015      24.336   8.617  72.299  0.00  0.00     0.148 C 
ATOM     12  S2  LG1 d5015      24.698   8.932  73.904  0.00  0.00    -0.052 SA
ATOM     13  S1  LG1 d5015      25.072   9.575  71.019  0.00  0.00    -0.090 SA
ATOM     14  C10 LG1 d5015      24.580   8.444  69.719  0.00  0.00     0.185 C 
ATOM     15  C9  LG1 d5015      23.604   7.484  70.336  0.00  0.00     0.239 C 
ATOM     16  O1  LG1 d5015      22.949   6.720  69.632  0.00  0.00    -0.272 OA
ENDBRANCH   1  10
TORSDOF 1
ENDMDL
MODEL 2
REMARK VINA RESULT:    -6.195      0.039      2.152
REMARK INTER + INTRA:          -6.760
REMARK INTER:                  -6.584
REMARK INTRA:                  -0.176
REMARK UNBOUND:                -0.202
REMARK  1 active torsions:
REMARK  status: ('A' for Active; 'I' for Inactive)
REMARK    1  A    between atoms: C1_1  and  N1_10 
ROOT
ATOM      1  C1  LG1 d5015      22.713   6.735  72.488  0.00  0.00     0.056 A 
ATOM      2  C2  LG1 d5015      23.163   5.475  72.880  0.00  0.00    -0.033 A 
ATOM      3  C3  LG1 d5015      22.326   4.632  73.612  0.00  0.00     0.028 A 
ATOM      4  C4  LG1 d5015      21.040   5.049  73.952  0.00  0.00     0.012 A 
ATOM      5  C5  LG1 d5015      20.590   6.312  73.561  0.00  0.00     0.028 A 
ATOM      6  C6  LG1 d5015      21.426   7.153  72.829  0.00  0.00    -0.033 A 
ATOM      7  C7  LG1 d5015      20.916   8.498  72.424  0.00  0.00     0.050 C 
ATOM      8 BR1  LG1 d5015      19.908   3.908  74.946  0.00  0.00    -0.051 Br
ATOM      9  C8  LG1 d5015      24.535   4.999  72.528  0.00  0.00     0.050 C 
ENDROOT
BRANCH   1  10
ATOM     10  N1  LG1 d5015      23.573   7.602  71.733  0.00  0.00    -0.265 N 
ATOM     11  C11 LG1 d5015      24.358   8.608  72.295  0.00  0.00     0.148 C 
ATOM     12  S2  LG1 d5015      24.710   8.938  73.900  0.00  0.00    -0.052 SA
ATOM     13  S1  LG1 d5015      25.112   9.547  71.012  0.00  0.00    -0.090 SA
ATOM     14  C10 LG1 d5015      24.621   8.405  69.720  0.00  0.00     0.185 C 
ATOM     15  C9  LG1 d5015      23.633   7.460  70.339  0.00  0.00     0.239 C 
ATOM     16  O1  LG1 d5015      22.977   6.693  69.638  0.00  0.00    -0.272 OA
ENDBRANCH   1  10
TORSDOF 1
ENDMDL
MODEL 3
REMARK VINA RESULT:    -5.892      1.691      2.200
REMARK INTER + INTRA:          -6.439
REMARK INTER:                  -6.237
REMARK INTRA:                  -0.202
REMARK UNBOUND:                -0.202
REMARK  1 active torsions:
REMARK  status: ('A' for Active; 'I' for Inactive)
REMARK    1  A    between atoms: C1_1  and  N1_10 
ROOT
ATOM      1  C1  LG1 d5015      22.992   6.902  72.714  0.00  0.00     0.056 A 
ATOM      2  C2  LG1 d5015      21.664   7.274  72.917  0.00  0.00    -0.033 A 
ATOM      3  C3  LG1 d5015      20.734   6.330  73.352  0.00  0.00     0.028 A 
ATOM      4  C4  LG1 d5015      21.132   5.014  73.585  0.00  0.00     0.012 A 
ATOM      5  C5  LG1 d5015      22.463   4.642  73.382  0.00  0.00     0.028 A 
ATOM      6  C6  LG1 d5015      23.391   5.586  72.946  0.00  0.00    -0.033 A 
ATOM      7  C7  LG1 d5015      24.808   5.157  72.737  0.00  0.00     0.050 C 
ATOM      8 BR1  LG1 d5015      19.872   3.734  74.174  0.00  0.00    -0.051 Br
ATOM      9  C8  LG1 d5015      21.207   8.677  72.677  0.00  0.00     0.050 C 
ENDROOT
BRANCH   1  10
ATOM     10  N1  LG1 d5015      23.950   7.874  72.267  0.00  0.00    -0.265 N 
ATOM     11  C11 LG1 d5015      24.285   8.085  70.929  0.00  0.00     0.148 C 
ATOM     12  S2  LG1 d5015      23.569   7.506  69.530  0.00  0.00    -0.052 SA
ATOM     13  S1  LG1 d5015      25.620   9.227  70.835  0.00  0.00    -0.090 SA
ATOM     14  C10 LG1 d5015      25.535   9.660  72.572  0.00  0.00     0.185 C 
ATOM     15  C9  LG1 d5015      24.617   8.663  73.216  0.00  0.00     0.239 C 
ATOM     16  O1  LG1 d5015      24.527   8.594  74.439  0.00  0.00    -0.272 OA
ENDBRANCH   1  10
TORSDOF 1
ENDMDL
MODEL 4
REMARK VINA RESULT:    -5.675      6.015      7.919
REMARK INTER + INTRA:          -6.209
REMARK INTER:                  -6.019
REMARK INTRA:                  -0.190
REMARK UNBOUND:                -0.202
REMARK  1 active torsions:
REMARK  status: ('A' for Active; 'I' for Inactive)
REMARK    1  A    between atoms: C1_1  and  N1_10 
ROOT
ATOM      1  C1  LG1 d5015      20.882   1.832  74.988  0.00  0.00     0.056 A 
ATOM      2  C2  LG1 d5015      21.990   2.514  75.490  0.00  0.00    -0.033 A 
ATOM      3  C3  LG1 d5015      22.249   3.821  75.078  0.00  0.00     0.028 A 
ATOM      4  C4  LG1 d5015      21.401   4.447  74.166  0.00  0.00     0.012 A 
ATOM      5  C5  LG1 d5015      20.292   3.763  73.662  0.00  0.00     0.028 A 
ATOM      6  C6  LG1 d5015      20.034   2.457  74.074  0.00  0.00    -0.033 A 
ATOM      7  C7  LG1 d5015      18.839   1.751  73.518  0.00  0.00     0.050 C 
ATOM      8 BR1  LG1 d5015      21.753   6.218  73.607  0.00  0.00    -0.051 Br
ATOM      9  C8  LG1 d5015      22.916   1.871  76.471  0.00  0.00     0.050 C 
ENDROOT
BRANCH   1  10
ATOM     10  N1  LG1 d5015      20.614   0.486  75.413  0.00  0.00    -0.265 N 
ATOM     11  C11 LG1 d5015      19.912   0.157  76.573  0.00  0.00     0.148 C 
ATOM     12  S2  LG1 d5015      19.025   1.124  77.613  0.00  0.00    -0.052 SA
ATOM     13  S1  LG1 d5015      19.967  -1.586  76.813  0.00  0.00    -0.090 SA
ATOM     14  C10 LG1 d5015      20.673  -1.911  75.198  0.00  0.00     0.185 C 
ATOM     15  C9  LG1 d5015      21.092  -0.581  74.640  0.00  0.00     0.239 C 
ATOM     16  O1  LG1 d5015      21.787  -0.519  73.629  0.00  0.00    -0.272 OA
ENDBRANCH   1  10
TORSDOF 1
ENDMDL
MODEL 5
REMARK VINA RESULT:    -5.671      6.006      7.740
REMARK INTER + INTRA:          -6.205
REMARK INTER:                  -6.024
REMARK INTRA:                  -0.181
REMARK UNBOUND:                -0.202
REMARK  1 active torsions:
REMARK  status: ('A' for Active; 'I' for Inactive)
REMARK    1  A    between atoms: C1_1  and  N1_10 
ROOT
ATOM      1  C1  LG1 d5015      20.908   1.855  75.033  0.00  0.00     0.056 A 
ATOM      2  C2  LG1 d5015      20.049   2.475  74.127  0.00  0.00    -0.033 A 
ATOM      3  C3  LG1 d5015      20.304   3.781  73.707  0.00  0.00     0.028 A 
ATOM      4  C4  LG1 d5015      21.417   4.466  74.192  0.00  0.00     0.012 A 
ATOM      5  C5  LG1 d5015      22.276   3.845  75.101  0.00  0.00     0.028 A 
ATOM      6  C6  LG1 d5015      22.021   2.540  75.520  0.00  0.00    -0.033 A 
ATOM      7  C7  LG1 d5015      22.959   1.902  76.493  0.00  0.00     0.050 C 
ATOM      8 BR1  LG1 d5015      21.760   6.235  73.624  0.00  0.00    -0.051 Br
ATOM      9  C8  LG1 d5015      18.849   1.766  73.587  0.00  0.00     0.050 C 
ENDROOT
BRANCH   1  10
ATOM     10  N1  LG1 d5015      20.648   0.510  75.465  0.00  0.00    -0.265 N 
ATOM     11  C11 LG1 d5015      19.974   0.184  76.642  0.00  0.00     0.148 C 
ATOM     12  S2  LG1 d5015      19.115   1.154  77.704  0.00  0.00    -0.052 SA
ATOM     13  S1  LG1 d5015      20.030  -1.559  76.883  0.00  0.00    -0.090 SA
ATOM     14  C10 LG1 d5015      20.694  -1.887  75.251  0.00  0.00     0.185 C 
ATOM     15  C9  LG1 d5015      21.103  -0.559  74.681  0.00  0.00     0.239 C 
ATOM     16  O1  LG1 d5015      21.773  -0.499  73.654  0.00  0.00    -0.272 OA
ENDBRANCH   1  10
TORSDOF 1
ENDMDL
