REMARK INTER + INTRA:          -7.745
REMARK INTER:                  -7.577
REMARK INTRA:                  -0.168
REMARK UNBOUND:                -0.163
REMARK  1 active torsions:
REMARK  status: ('A' for Active; 'I' for Inactive)
REMARK    1  A    between atoms: C10_13  and  C11_14 
ROOT
ATOM      1  C1  LG1 d5015      22.195   4.077  73.758  0.00  0.00     0.018 C 
ATOM      2  C2  LG1 d5015      23.118   4.997  73.047  0.00  0.00     0.193 C 
ATOM      3  C3  LG1 d5015      22.528   6.307  72.698  0.00  0.00     0.049 A 
ATOM      4  C4  LG1 d5015      23.254   7.220  71.930  0.00  0.00     0.037 A 
ATOM      5  C5  LG1 d5015      22.714   8.477  71.656  0.00  0.00     0.012 A 
ATOM      6  C6  LG1 d5015      21.458   8.826  72.153  0.00  0.00     0.022 A 
ATOM      7  C7  LG1 d5015      20.734   7.915  72.924  0.00  0.00     0.039 A 
ATOM      8  C8  LG1 d5015      21.260   6.649  73.183  0.00  0.00     0.083 A 
ATOM      9  O1  LG1 d5015      20.504   5.810  73.959  0.00  0.00    -0.346 OA
ATOM     10  C9  LG1 d5015      20.743   4.425  73.690  0.00  0.00     0.218 C 
ATOM     11 BR1  LG1 d5015      23.679   9.706  70.591  0.00  0.00    -0.051 Br
ATOM     12  O2  LG1 d5015      24.273   4.714  72.764  0.00  0.00    -0.287 OA
ATOM     13  C10 LG1 d5015      22.692   3.013  74.398  0.00  0.00     0.025 C 
ENDROOT
BRANCH  13  14
ATOM     14  C11 LG1 d5015      21.905   2.056  75.118  0.00  0.00    -0.029 A 
ATOM     15  C14 LG1 d5015      21.618   2.182  76.458  0.00  0.00     0.061 A 
ATOM     16  S1  LG1 d5015      20.658   0.887  77.033  0.00  0.00    -0.113 SA
ATOM     17  C13 LG1 d5015      20.625   0.152  75.488  0.00  0.00     0.050 A 
ATOM     18  C12 LG1 d5015      21.330   0.881  74.555  0.00  0.00     0.019 A 
ENDBRANCH  13  14
TORSDOF 1
ENDMDL
