REMARK INTER + INTRA:          -8.247
REMARK INTER:                  -8.116
REMARK INTRA:                  -0.131
REMARK UNBOUND:                -0.163
REMARK  1 active torsions:
REMARK  status: ('A' for Active; 'I' for Inactive)
REMARK    1  A    between atoms: C10_13  and  C11_14 
ROOT
ATOM      1  C1  LG1 d5015      22.736   5.555  73.190  0.00  0.00     0.018 C 
ATOM      2  C2  LG1 d5015      22.970   4.092  73.109  0.00  0.00     0.193 C 
ATOM      3  C3  LG1 d5015      21.870   3.266  73.650  0.00  0.00     0.049 A 
ATOM      4  C4  LG1 d5015      22.012   1.879  73.735  0.00  0.00     0.037 A 
ATOM      5  C5  LG1 d5015      20.946   1.102  74.190  0.00  0.00     0.012 A 
ATOM      6  C6  LG1 d5015      19.739   1.703  74.549  0.00  0.00     0.022 A 
ATOM      7  C7  LG1 d5015      19.597   3.089  74.460  0.00  0.00     0.039 A 
ATOM      8  C8  LG1 d5015      20.666   3.873  74.027  0.00  0.00     0.083 A 
ATOM      9  O1  LG1 d5015      20.452   5.224  73.947  0.00  0.00    -0.346 OA
ATOM     10  C9  LG1 d5015      21.646   5.995  74.113  0.00  0.00     0.218 C 
ATOM     11 BR1  LG1 d5015      21.143  -0.774  74.337  0.00  0.00    -0.051 Br
ATOM     12  O2  LG1 d5015      23.981   3.591  72.639  0.00  0.00    -0.287 OA
ATOM     13  C10 LG1 d5015      23.494   6.383  72.461  0.00  0.00     0.025 C 
ENDROOT
BRANCH  13  14
ATOM     14  C11 LG1 d5015      23.364   7.809  72.454  0.00  0.00    -0.029 A 
ATOM     15  C14 LG1 d5015      22.417   8.470  71.705  0.00  0.00     0.061 A 
ATOM     16  S1  LG1 d5015      22.508  10.167  71.906  0.00  0.00    -0.113 SA
ATOM     17  C13 LG1 d5015      23.819  10.023  72.997  0.00  0.00     0.050 A 
ATOM     18  C12 LG1 d5015      24.177   8.709  73.203  0.00  0.00     0.019 A 
ENDBRANCH  13  14
TORSDOF 1
ENDMDL
