REMARK INTER + INTRA:          -6.770
REMARK INTER:                  -6.590
REMARK INTRA:                  -0.180
REMARK UNBOUND:                -0.204
REMARK  1 active torsions:
REMARK  status: ('A' for Active; 'I' for Inactive)
REMARK    1  A    between atoms: C1_1  and  N1_10 
ROOT
ATOM      1  C1  LG1 d5015      22.728   6.754  72.488  0.00  0.00     0.056 A 
ATOM      2  C2  LG1 d5015      21.440   7.157  72.841  0.00  0.00    -0.033 A 
ATOM      3  C3  LG1 d5015      20.623   6.305  73.585  0.00  0.00     0.028 A 
ATOM      4  C4  LG1 d5015      21.092   5.052  73.976  0.00  0.00     0.012 A 
ATOM      5  C5  LG1 d5015      22.381   4.648  73.622  0.00  0.00     0.028 A 
ATOM      6  C6  LG1 d5015      23.197   5.499  72.879  0.00  0.00    -0.033 A 
ATOM      7  C7  LG1 d5015      24.572   5.039  72.515  0.00  0.00     0.050 C 
ATOM      8 BR1  LG1 d5015      19.983   3.899  74.982  0.00  0.00    -0.051 Br
ATOM      9  C8  LG1 d5015      20.910   8.494  72.438  0.00  0.00     0.050 C 
ENDROOT
BRANCH   1  10
ATOM     10  N1  LG1 d5015      23.571   7.630  71.724  0.00  0.00    -0.265 N 
ATOM     11  C11 LG1 d5015      24.350   8.645  72.278  0.00  0.00     0.148 C 
ATOM     12  S2  LG1 d5015      24.715   8.981  73.879  0.00  0.00    -0.052 SA
ATOM     13  S1  LG1 d5015      25.081   9.591  70.986  0.00  0.00    -0.090 SA
ATOM     14  C10 LG1 d5015      24.590   8.443  69.700  0.00  0.00     0.185 C 
ATOM     15  C9  LG1 d5015      23.618   7.487  70.330  0.00  0.00     0.239 C 
ATOM     16  O1  LG1 d5015      22.965   6.712  69.636  0.00  0.00    -0.272 OA
ENDBRANCH   1  10
TORSDOF 1
ENDMDL
