REMARK INTER + INTRA:          -8.247
REMARK INTER:                  -8.117
REMARK INTRA:                  -0.131
REMARK UNBOUND:                -0.154
REMARK  1 active torsions:
REMARK  status: ('A' for Active; 'I' for Inactive)
REMARK    1  A    between atoms: C10_13  and  C11_14 
ROOT
ATOM      1  C1  LG1 d5015      22.732   5.560  73.184  0.00  0.00     0.018 C 
ATOM      2  C2  LG1 d5015      22.958   4.096  73.094  0.00  0.00     0.193 C 
ATOM      3  C3  LG1 d5015      21.854   3.272  73.631  0.00  0.00     0.049 A 
ATOM      4  C4  LG1 d5015      21.989   1.884  73.708  0.00  0.00     0.037 A 
ATOM      5  C5  LG1 d5015      20.920   1.110  74.159  0.00  0.00     0.012 A 
ATOM      6  C6  LG1 d5015      19.716   1.715  74.522  0.00  0.00     0.022 A 
ATOM      7  C7  LG1 d5015      19.581   3.102  74.441  0.00  0.00     0.039 A 
ATOM      8  C8  LG1 d5015      20.653   3.884  74.012  0.00  0.00     0.083 A 
ATOM      9  O1  LG1 d5015      20.446   5.236  73.940  0.00  0.00    -0.346 OA
ATOM     10  C9  LG1 d5015      21.645   6.000  74.110  0.00  0.00     0.218 C 
ATOM     11 BR1  LG1 d5015      21.106  -0.768  74.295  0.00  0.00    -0.051 Br
ATOM     12  O2  LG1 d5015      23.966   3.593  72.621  0.00  0.00    -0.287 OA
ATOM     13  C10 LG1 d5015      23.494   6.388  72.459  0.00  0.00     0.025 C 
ENDROOT
BRANCH  13  14
ATOM     14  C11 LG1 d5015      23.372   7.815  72.460  0.00  0.00    -0.029 A 
ATOM     15  C14 LG1 d5015      22.426   8.484  71.717  0.00  0.00     0.061 A 
ATOM     16  S1  LG1 d5015      22.528  10.180  71.926  0.00  0.00    -0.113 SA
ATOM     17  C13 LG1 d5015      23.839  10.023  73.015  0.00  0.00     0.050 A 
ATOM     18  C12 LG1 d5015      24.190   8.706  73.213  0.00  0.00     0.019 A 
ENDBRANCH  13  14
TORSDOF 1
ENDMDL
