REMARK INTER + INTRA:          -7.739
REMARK INTER:                  -7.572
REMARK INTRA:                  -0.167
REMARK UNBOUND:                -0.154
REMARK  1 active torsions:
REMARK  status: ('A' for Active; 'I' for Inactive)
REMARK    1  A    between atoms: C10_13  and  C11_14 
ROOT
ATOM      1  C1  LG1 d5015      22.147   4.079  73.769  0.00  0.00     0.018 C 
ATOM      2  C2  LG1 d5015      23.093   4.993  73.082  0.00  0.00     0.193 C 
ATOM      3  C3  LG1 d5015      22.515   6.299  72.701  0.00  0.00     0.049 A 
ATOM      4  C4  LG1 d5015      23.267   7.206  71.951  0.00  0.00     0.037 A 
ATOM      5  C5  LG1 d5015      22.735   8.460  71.648  0.00  0.00     0.012 A 
ATOM      6  C6  LG1 d5015      21.464   8.813  72.100  0.00  0.00     0.022 A 
ATOM      7  C7  LG1 d5015      20.715   7.908  72.854  0.00  0.00     0.039 A 
ATOM      8  C8  LG1 d5015      21.231   6.645  73.141  0.00  0.00     0.083 A 
ATOM      9  O1  LG1 d5015      20.450   5.813  73.899  0.00  0.00    -0.346 OA
ATOM     10  C9  LG1 d5015      20.698   4.425  73.650  0.00  0.00     0.218 C 
ATOM     11 BR1  LG1 d5015      23.736   9.681  70.605  0.00  0.00    -0.051 Br
ATOM     12  O2  LG1 d5015      24.257   4.708  72.840  0.00  0.00    -0.287 OA
ATOM     13  C10 LG1 d5015      22.623   3.020  74.435  0.00  0.00     0.025 C 
ENDROOT
BRANCH  13  14
ATOM     14  C11 LG1 d5015      21.813   2.069  75.136  0.00  0.00    -0.029 A 
ATOM     15  C14 LG1 d5015      21.467   2.215  76.460  0.00  0.00     0.061 A 
ATOM     16  S1  LG1 d5015      20.493   0.921  77.015  0.00  0.00    -0.113 SA
ATOM     17  C13 LG1 d5015      20.531   0.161  75.482  0.00  0.00     0.050 A 
ATOM     18  C12 LG1 d5015      21.270   0.880  74.569  0.00  0.00     0.019 A 
ENDBRANCH  13  14
TORSDOF 1
ENDMDL
