REMARK INTER + INTRA:          -7.701
REMARK INTER:                  -7.540
REMARK INTRA:                  -0.160
REMARK UNBOUND:                -0.163
REMARK  1 active torsions:
REMARK  status: ('A' for Active; 'I' for Inactive)
REMARK    1  A    between atoms: C10_13  and  C11_14 
ROOT
ATOM      1  C1  LG1 d5015      22.326   6.468  72.780  0.00  0.00     0.018 C 
ATOM      2  C2  LG1 d5015      21.068   5.932  73.358  0.00  0.00     0.193 C 
ATOM      3  C3  LG1 d5015      21.121   4.498  73.715  0.00  0.00     0.049 A 
ATOM      4  C4  LG1 d5015      19.971   3.845  74.163  0.00  0.00     0.037 A 
ATOM      5  C5  LG1 d5015      20.044   2.508  74.555  0.00  0.00     0.012 A 
ATOM      6  C6  LG1 d5015      21.261   1.827  74.510  0.00  0.00     0.022 A 
ATOM      7  C7  LG1 d5015      22.411   2.481  74.065  0.00  0.00     0.039 A 
ATOM      8  C8  LG1 d5015      22.340   3.812  73.651  0.00  0.00     0.083 A 
ATOM      9  O1  LG1 d5015      23.509   4.397  73.243  0.00  0.00    -0.346 OA
ATOM     10  C9  LG1 d5015      23.310   5.453  72.297  0.00  0.00     0.218 C 
ATOM     11 BR1  LG1 d5015      18.484   1.609  75.134  0.00  0.00    -0.051 Br
ATOM     12  O2  LG1 d5015      20.061   6.603  73.531  0.00  0.00    -0.287 OA
ATOM     13  C10 LG1 d5015      22.508   7.793  72.717  0.00  0.00     0.025 C 
ENDROOT
BRANCH  13  14
ATOM     14  C11 LG1 d5015      23.675   8.428  72.183  0.00  0.00    -0.029 A 
ATOM     15  C14 LG1 d5015      24.795   8.690  72.939  0.00  0.00     0.061 A 
ATOM     16  S1  LG1 d5015      26.024   9.453  72.024  0.00  0.00    -0.113 SA
ATOM     17  C13 LG1 d5015      25.058   9.437  70.611  0.00  0.00     0.050 A 
ATOM     18  C12 LG1 d5015      23.827   8.861  70.834  0.00  0.00     0.019 A 
ENDBRANCH  13  14
TORSDOF 1
ENDMDL
