REMARK INTER + INTRA:          -6.760
REMARK INTER:                  -6.584
REMARK INTRA:                  -0.176
REMARK UNBOUND:                -0.202
REMARK  1 active torsions:
REMARK  status: ('A' for Active; 'I' for Inactive)
REMARK    1  A    between atoms: C1_1  and  N1_10 
ROOT
ATOM      1  C1  LG1 d5015      22.713   6.735  72.488  0.00  0.00     0.056 A 
ATOM      2  C2  LG1 d5015      23.163   5.475  72.880  0.00  0.00    -0.033 A 
ATOM      3  C3  LG1 d5015      22.326   4.632  73.612  0.00  0.00     0.028 A 
ATOM      4  C4  LG1 d5015      21.040   5.049  73.952  0.00  0.00     0.012 A 
ATOM      5  C5  LG1 d5015      20.590   6.312  73.561  0.00  0.00     0.028 A 
ATOM      6  C6  LG1 d5015      21.426   7.153  72.829  0.00  0.00    -0.033 A 
ATOM      7  C7  LG1 d5015      20.916   8.498  72.424  0.00  0.00     0.050 C 
ATOM      8 BR1  LG1 d5015      19.908   3.908  74.946  0.00  0.00    -0.051 Br
ATOM      9  C8  LG1 d5015      24.535   4.999  72.528  0.00  0.00     0.050 C 
ENDROOT
BRANCH   1  10
ATOM     10  N1  LG1 d5015      23.573   7.602  71.733  0.00  0.00    -0.265 N 
ATOM     11  C11 LG1 d5015      24.358   8.608  72.295  0.00  0.00     0.148 C 
ATOM     12  S2  LG1 d5015      24.710   8.938  73.900  0.00  0.00    -0.052 SA
ATOM     13  S1  LG1 d5015      25.112   9.547  71.012  0.00  0.00    -0.090 SA
ATOM     14  C10 LG1 d5015      24.621   8.405  69.720  0.00  0.00     0.185 C 
ATOM     15  C9  LG1 d5015      23.633   7.460  70.339  0.00  0.00     0.239 C 
ATOM     16  O1  LG1 d5015      22.977   6.693  69.638  0.00  0.00    -0.272 OA
ENDBRANCH   1  10
TORSDOF 1
ENDMDL
