REMARK INTER + INTRA:          -7.932
REMARK INTER:                  -7.769
REMARK INTRA:                  -0.163
REMARK UNBOUND:                -0.161
REMARK  1 active torsions:
REMARK  status: ('A' for Active; 'I' for Inactive)
REMARK    1  A    between atoms: C10_13  and  C11_14 
ROOT
ATOM      1  C1  LG1 d5015      21.561   3.816  74.047  0.00  0.00     0.018 C 
ATOM      2  C2  LG1 d5015      21.127   5.192  73.697  0.00  0.00     0.193 C 
ATOM      3  C3  LG1 d5015      22.201   6.055  73.160  0.00  0.00     0.049 A 
ATOM      4  C4  LG1 d5015      21.950   7.403  72.898  0.00  0.00     0.037 A 
ATOM      5  C5  LG1 d5015      22.951   8.196  72.335  0.00  0.00     0.012 A 
ATOM      6  C6  LG1 d5015      24.194   7.643  72.025  0.00  0.00     0.022 A 
ATOM      7  C7  LG1 d5015      24.443   6.294  72.284  0.00  0.00     0.039 A 
ATOM      8  C8  LG1 d5015      23.454   5.503  72.867  0.00  0.00     0.083 A 
ATOM      9  O1  LG1 d5015      23.759   4.184  73.077  0.00  0.00    -0.346 OA
ATOM     10  C9  LG1 d5015      23.036   3.606  74.169  0.00  0.00     0.218 C 
ATOM     11 BR1  LG1 d5015      22.628  10.030  72.006  0.00  0.00    -0.051 Br
ATOM     12  O2  LG1 d5015      19.983   5.598  73.836  0.00  0.00    -0.287 OA
ATOM     13  C10 LG1 d5015      20.640   2.864  74.234  0.00  0.00     0.025 C 
ENDROOT
BRANCH  13  14
ATOM     14  C11 LG1 d5015      20.934   1.504  74.572  0.00  0.00    -0.029 A 
ATOM     15  C14 LG1 d5015      21.077   1.071  75.872  0.00  0.00     0.061 A 
ATOM     16  S1  LG1 d5015      21.424  -0.604  75.955  0.00  0.00    -0.113 SA
ATOM     17  C13 LG1 d5015      21.383  -0.754  74.251  0.00  0.00     0.050 A 
ATOM     18  C12 LG1 d5015      21.110   0.446  73.633  0.00  0.00     0.019 A 
ENDBRANCH  13  14
TORSDOF 1
ENDMDL
