REMARK INTER + INTRA:          -7.940
REMARK INTER:                  -7.776
REMARK INTRA:                  -0.164
REMARK UNBOUND:                -0.154
REMARK  1 active torsions:
REMARK  status: ('A' for Active; 'I' for Inactive)
REMARK    1  A    between atoms: C10_13  and  C11_14 
ROOT
ATOM      1  C1  LG1 d5015      21.581   3.828  74.028  0.00  0.00     0.018 C 
ATOM      2  C2  LG1 d5015      21.165   5.210  73.684  0.00  0.00     0.193 C 
ATOM      3  C3  LG1 d5015      22.246   6.054  73.131  0.00  0.00     0.049 A 
ATOM      4  C4  LG1 d5015      22.014   7.407  72.871  0.00  0.00     0.037 A 
ATOM      5  C5  LG1 d5015      23.020   8.182  72.293  0.00  0.00     0.012 A 
ATOM      6  C6  LG1 d5015      24.249   7.609  71.966  0.00  0.00     0.022 A 
ATOM      7  C7  LG1 d5015      24.479   6.256  72.223  0.00  0.00     0.039 A 
ATOM      8  C8  LG1 d5015      23.485   5.482  72.820  0.00  0.00     0.083 A 
ATOM      9  O1  LG1 d5015      23.771   4.158  73.028  0.00  0.00    -0.346 OA
ATOM     10  C9  LG1 d5015      23.053   3.593  74.130  0.00  0.00     0.218 C 
ATOM     11 BR1  LG1 d5015      22.723  10.021  71.967  0.00  0.00    -0.051 Br
ATOM     12  O2  LG1 d5015      20.030   5.635  73.838  0.00  0.00    -0.287 OA
ATOM     13  C10 LG1 d5015      20.646   2.891  74.230  0.00  0.00     0.025 C 
ENDROOT
BRANCH  13  14
ATOM     14  C11 LG1 d5015      20.923   1.527  74.565  0.00  0.00    -0.029 A 
ATOM     15  C14 LG1 d5015      21.063   1.090  75.863  0.00  0.00     0.061 A 
ATOM     16  S1  LG1 d5015      21.387  -0.589  75.945  0.00  0.00    -0.113 SA
ATOM     17  C13 LG1 d5015      21.340  -0.737  74.240  0.00  0.00     0.050 A 
ATOM     18  C12 LG1 d5015      21.082   0.468  73.625  0.00  0.00     0.019 A 
ENDBRANCH  13  14
TORSDOF 1
ENDMDL
