REMARK INTER + INTRA:          -6.637
REMARK INTER:                  -6.652
REMARK INTRA:                   0.015
REMARK UNBOUND:                 0.015
REMARK  1 active torsions:
REMARK  status: ('A' for Active; 'I' for Inactive)
REMARK    1  A    between atoms: C10_13  and  C11_14 
ROOT
ATOM      1  C1  LG1 d5015      21.936   4.082  73.768  0.00  0.00     0.018 C 
ATOM      2  C2  LG1 d5015      20.740   3.226  73.976  0.00  0.00     0.193 C 
ATOM      3  C3  LG1 d5015      20.945   2.107  74.920  0.00  0.00     0.049 A 
ATOM      4  C4  LG1 d5015      19.935   1.164  75.117  0.00  0.00     0.037 A 
ATOM      5  C5  LG1 d5015      20.113   0.146  76.054  0.00  0.00     0.012 A 
ATOM      6  C6  LG1 d5015      21.291   0.074  76.799  0.00  0.00     0.022 A 
ATOM      7  C7  LG1 d5015      22.299   1.019  76.604  0.00  0.00     0.039 A 
ATOM      8  C8  LG1 d5015      22.135   2.026  75.653  0.00  0.00     0.083 A 
ATOM      9  O1  LG1 d5015      23.156   2.931  75.525  0.00  0.00    -0.346 OA
ATOM     10  C9  LG1 d5015      23.239   3.506  74.217  0.00  0.00     0.218 C 
ATOM     11 BR1  LG1 d5015      18.761  -1.153  76.305  0.00  0.00    -0.051 Br
ATOM     12  O2  LG1 d5015      19.667   3.414  73.422  0.00  0.00    -0.287 OA
ATOM     13  C10 LG1 d5015      21.791   5.286  73.201  0.00  0.00     0.025 C 
ENDROOT
BRANCH  13  14
ATOM     14  C11 LG1 d5015      22.865   6.199  72.950  0.00  0.00    -0.029 A 
ATOM     15  C14 LG1 d5015      22.941   7.443  73.534  0.00  0.00     0.061 A 
ATOM     16  S1  LG1 d5015      24.338   8.300  73.041  0.00  0.00    -0.113 SA
ATOM     17  C13 LG1 d5015      24.846   7.008  72.042  0.00  0.00     0.050 A 
ATOM     18  C12 LG1 d5015      23.970   5.946  72.085  0.00  0.00     0.019 A 
ENDBRANCH  13  14
TORSDOF 1
ENDMDL
