REMARK INTER + INTRA:          -6.983
REMARK INTER:                  -6.829
REMARK INTRA:                  -0.154
REMARK UNBOUND:                -0.154
REMARK  1 active torsions:
REMARK  status: ('A' for Active; 'I' for Inactive)
REMARK    1  A    between atoms: C10_13  and  C11_14 
ROOT
ATOM      1  C1  LG1 d5015      21.700   2.595  74.422  0.00  0.00     0.018 C 
ATOM      2  C2  LG1 d5015      22.667   3.670  74.087  0.00  0.00     0.193 C 
ATOM      3  C3  LG1 d5015      22.046   4.935  73.640  0.00  0.00     0.049 A 
ATOM      4  C4  LG1 d5015      22.845   5.987  73.189  0.00  0.00     0.037 A 
ATOM      5  C5  LG1 d5015      22.254   7.198  72.826  0.00  0.00     0.012 A 
ATOM      6  C6  LG1 d5015      20.872   7.363  72.923  0.00  0.00     0.022 A 
ATOM      7  C7  LG1 d5015      20.074   6.312  73.378  0.00  0.00     0.039 A 
ATOM      8  C8  LG1 d5015      20.657   5.092  73.721  0.00  0.00     0.083 A 
ATOM      9  O1  LG1 d5015      19.817   4.110  74.176  0.00  0.00    -0.346 OA
ATOM     10  C9  LG1 d5015      20.306   2.788  73.922  0.00  0.00     0.218 C 
ATOM     11 BR1  LG1 d5015      23.329   8.616  72.185  0.00  0.00    -0.051 Br
ATOM     12  O2  LG1 d5015      23.880   3.540  74.165  0.00  0.00    -0.287 OA
ATOM     13  C10 LG1 d5015      22.114   1.536  75.129  0.00  0.00     0.025 C 
ENDROOT
BRANCH  13  14
ATOM     14  C11 LG1 d5015      21.278   0.439  75.513  0.00  0.00    -0.029 A 
ATOM     15  C14 LG1 d5015      20.499   0.454  76.648  0.00  0.00     0.061 A 
ATOM     16  S1  LG1 d5015      19.612  -0.997  76.838  0.00  0.00    -0.113 SA
ATOM     17  C13 LG1 d5015      20.268  -1.652  75.400  0.00  0.00     0.050 A 
ATOM     18  C12 LG1 d5015      21.143  -0.781  74.789  0.00  0.00     0.019 A 
ENDBRANCH  13  14
TORSDOF 1
ENDMDL
