REMARK INTER + INTRA:          -7.730
REMARK INTER:                  -7.561
REMARK INTRA:                  -0.169
REMARK UNBOUND:                 0.015
REMARK  1 active torsions:
REMARK  status: ('A' for Active; 'I' for Inactive)
REMARK    1  A    between atoms: C10_13  and  C11_14 
ROOT
ATOM      1  C1  LG1 d5015      22.059   3.950  73.753  0.00  0.00     0.018 C 
ATOM      2  C2  LG1 d5015      23.051   4.819  73.072  0.00  0.00     0.193 C 
ATOM      3  C3  LG1 d5015      22.538   6.151  72.690  0.00  0.00     0.049 A 
ATOM      4  C4  LG1 d5015      23.336   7.021  71.944  0.00  0.00     0.037 A 
ATOM      5  C5  LG1 d5015      22.867   8.300  71.640  0.00  0.00     0.012 A 
ATOM      6  C6  LG1 d5015      21.611   8.713  72.086  0.00  0.00     0.022 A 
ATOM      7  C7  LG1 d5015      20.816   7.844  72.835  0.00  0.00     0.039 A 
ATOM      8  C8  LG1 d5015      21.270   6.557  73.123  0.00  0.00     0.083 A 
ATOM      9  O1  LG1 d5015      20.446   5.763  73.876  0.00  0.00    -0.346 OA
ATOM     10  C9  LG1 d5015      20.629   4.365  73.628  0.00  0.00     0.218 C 
ATOM     11 BR1  LG1 d5015      23.929   9.472  70.603  0.00  0.00    -0.051 Br
ATOM     12  O2  LG1 d5015      24.201   4.479  72.836  0.00  0.00    -0.287 OA
ATOM     13  C10 LG1 d5015      22.481   2.869  74.421  0.00  0.00     0.025 C 
ENDROOT
BRANCH  13  14
ATOM     14  C11 LG1 d5015      21.622   1.958  75.116  0.00  0.00    -0.029 A 
ATOM     15  C14 LG1 d5015      21.294   2.106  76.445  0.00  0.00     0.061 A 
ATOM     16  S1  LG1 d5015      20.252   0.864  76.992  0.00  0.00    -0.113 SA
ATOM     17  C13 LG1 d5015      20.237   0.122  75.450  0.00  0.00     0.050 A 
ATOM     18  C12 LG1 d5015      21.009   0.808  74.540  0.00  0.00     0.019 A 
ENDBRANCH  13  14
TORSDOF 1
ENDMDL
