MODEL 1
REMARK VINA RESULT:    -7.646      0.000      0.000
REMARK INTER + INTRA:          -8.247
REMARK INTER:                  -8.117
REMARK INTRA:                  -0.131
REMARK UNBOUND:                -0.154
REMARK  1 active torsions:
REMARK  status: ('A' for Active; 'I' for Inactive)
REMARK    1  A    between atoms: C10_13  and  C11_14 
ROOT
ATOM      1  C1  LG1 d5015      22.732   5.560  73.184  0.00  0.00     0.018 C 
ATOM      2  C2  LG1 d5015      22.958   4.096  73.094  0.00  0.00     0.193 C 
ATOM      3  C3  LG1 d5015      21.854   3.272  73.631  0.00  0.00     0.049 A 
ATOM      4  C4  LG1 d5015      21.989   1.884  73.708  0.00  0.00     0.037 A 
ATOM      5  C5  LG1 d5015      20.920   1.110  74.159  0.00  0.00     0.012 A 
ATOM      6  C6  LG1 d5015      19.716   1.715  74.522  0.00  0.00     0.022 A 
ATOM      7  C7  LG1 d5015      19.581   3.102  74.441  0.00  0.00     0.039 A 
ATOM      8  C8  LG1 d5015      20.653   3.884  74.012  0.00  0.00     0.083 A 
ATOM      9  O1  LG1 d5015      20.446   5.236  73.940  0.00  0.00    -0.346 OA
ATOM     10  C9  LG1 d5015      21.645   6.000  74.110  0.00  0.00     0.218 C 
ATOM     11 BR1  LG1 d5015      21.106  -0.768  74.295  0.00  0.00    -0.051 Br
ATOM     12  O2  LG1 d5015      23.966   3.593  72.621  0.00  0.00    -0.287 OA
ATOM     13  C10 LG1 d5015      23.494   6.388  72.459  0.00  0.00     0.025 C 
ENDROOT
BRANCH  13  14
ATOM     14  C11 LG1 d5015      23.372   7.815  72.460  0.00  0.00    -0.029 A 
ATOM     15  C14 LG1 d5015      22.426   8.484  71.717  0.00  0.00     0.061 A 
ATOM     16  S1  LG1 d5015      22.528  10.180  71.926  0.00  0.00    -0.113 SA
ATOM     17  C13 LG1 d5015      23.839  10.023  73.015  0.00  0.00     0.050 A 
ATOM     18  C12 LG1 d5015      24.190   8.706  73.213  0.00  0.00     0.019 A 
ENDBRANCH  13  14
TORSDOF 1
ENDMDL
MODEL 2
REMARK VINA RESULT:    -7.356      3.924      6.944
REMARK INTER + INTRA:          -7.940
REMARK INTER:                  -7.776
REMARK INTRA:                  -0.164
REMARK UNBOUND:                -0.154
REMARK  1 active torsions:
REMARK  status: ('A' for Active; 'I' for Inactive)
REMARK    1  A    between atoms: C10_13  and  C11_14 
ROOT
ATOM      1  C1  LG1 d5015      21.581   3.828  74.028  0.00  0.00     0.018 C 
ATOM      2  C2  LG1 d5015      21.165   5.210  73.684  0.00  0.00     0.193 C 
ATOM      3  C3  LG1 d5015      22.246   6.054  73.131  0.00  0.00     0.049 A 
ATOM      4  C4  LG1 d5015      22.014   7.407  72.871  0.00  0.00     0.037 A 
ATOM      5  C5  LG1 d5015      23.020   8.182  72.293  0.00  0.00     0.012 A 
ATOM      6  C6  LG1 d5015      24.249   7.609  71.966  0.00  0.00     0.022 A 
ATOM      7  C7  LG1 d5015      24.479   6.256  72.223  0.00  0.00     0.039 A 
ATOM      8  C8  LG1 d5015      23.485   5.482  72.820  0.00  0.00     0.083 A 
ATOM      9  O1  LG1 d5015      23.771   4.158  73.028  0.00  0.00    -0.346 OA
ATOM     10  C9  LG1 d5015      23.053   3.593  74.130  0.00  0.00     0.218 C 
ATOM     11 BR1  LG1 d5015      22.723  10.021  71.967  0.00  0.00    -0.051 Br
ATOM     12  O2  LG1 d5015      20.030   5.635  73.838  0.00  0.00    -0.287 OA
ATOM     13  C10 LG1 d5015      20.646   2.891  74.230  0.00  0.00     0.025 C 
ENDROOT
BRANCH  13  14
ATOM     14  C11 LG1 d5015      20.923   1.527  74.565  0.00  0.00    -0.029 A 
ATOM     15  C14 LG1 d5015      21.063   1.090  75.863  0.00  0.00     0.061 A 
ATOM     16  S1  LG1 d5015      21.387  -0.589  75.945  0.00  0.00    -0.113 SA
ATOM     17  C13 LG1 d5015      21.340  -0.737  74.240  0.00  0.00     0.050 A 
ATOM     18  C12 LG1 d5015      21.082   0.468  73.625  0.00  0.00     0.019 A 
ENDBRANCH  13  14
TORSDOF 1
ENDMDL
MODEL 3
REMARK VINA RESULT:    -7.165      3.889      6.514
REMARK INTER + INTRA:          -7.739
REMARK INTER:                  -7.572
REMARK INTRA:                  -0.167
REMARK UNBOUND:                -0.154
REMARK  1 active torsions:
REMARK  status: ('A' for Active; 'I' for Inactive)
REMARK    1  A    between atoms: C10_13  and  C11_14 
ROOT
ATOM      1  C1  LG1 d5015      22.147   4.079  73.769  0.00  0.00     0.018 C 
ATOM      2  C2  LG1 d5015      23.093   4.993  73.082  0.00  0.00     0.193 C 
ATOM      3  C3  LG1 d5015      22.515   6.299  72.701  0.00  0.00     0.049 A 
ATOM      4  C4  LG1 d5015      23.267   7.206  71.951  0.00  0.00     0.037 A 
ATOM      5  C5  LG1 d5015      22.735   8.460  71.648  0.00  0.00     0.012 A 
ATOM      6  C6  LG1 d5015      21.464   8.813  72.100  0.00  0.00     0.022 A 
ATOM      7  C7  LG1 d5015      20.715   7.908  72.854  0.00  0.00     0.039 A 
ATOM      8  C8  LG1 d5015      21.231   6.645  73.141  0.00  0.00     0.083 A 
ATOM      9  O1  LG1 d5015      20.450   5.813  73.899  0.00  0.00    -0.346 OA
ATOM     10  C9  LG1 d5015      20.698   4.425  73.650  0.00  0.00     0.218 C 
ATOM     11 BR1  LG1 d5015      23.736   9.681  70.605  0.00  0.00    -0.051 Br
ATOM     12  O2  LG1 d5015      24.257   4.708  72.840  0.00  0.00    -0.287 OA
ATOM     13  C10 LG1 d5015      22.623   3.020  74.435  0.00  0.00     0.025 C 
ENDROOT
BRANCH  13  14
ATOM     14  C11 LG1 d5015      21.813   2.069  75.136  0.00  0.00    -0.029 A 
ATOM     15  C14 LG1 d5015      21.467   2.215  76.460  0.00  0.00     0.061 A 
ATOM     16  S1  LG1 d5015      20.493   0.921  77.015  0.00  0.00    -0.113 SA
ATOM     17  C13 LG1 d5015      20.531   0.161  75.482  0.00  0.00     0.050 A 
ATOM     18  C12 LG1 d5015      21.270   0.880  74.569  0.00  0.00     0.019 A 
ENDBRANCH  13  14
TORSDOF 1
ENDMDL
MODEL 4
REMARK VINA RESULT:    -7.115      1.637      2.654
REMARK INTER + INTRA:          -7.685
REMARK INTER:                  -7.523
REMARK INTRA:                  -0.162
REMARK UNBOUND:                -0.154
REMARK  1 active torsions:
REMARK  status: ('A' for Active; 'I' for Inactive)
REMARK    1  A    between atoms: C10_13  and  C11_14 
ROOT
ATOM      1  C1  LG1 d5015      22.334   6.445  72.767  0.00  0.00     0.018 C 
ATOM      2  C2  LG1 d5015      21.070   5.909  73.331  0.00  0.00     0.193 C 
ATOM      3  C3  LG1 d5015      21.113   4.472  73.675  0.00  0.00     0.049 A 
ATOM      4  C4  LG1 d5015      19.957   3.821  74.109  0.00  0.00     0.037 A 
ATOM      5  C5  LG1 d5015      20.021   2.480  74.489  0.00  0.00     0.012 A 
ATOM      6  C6  LG1 d5015      21.235   1.793  74.446  0.00  0.00     0.022 A 
ATOM      7  C7  LG1 d5015      22.391   2.446  74.015  0.00  0.00     0.039 A 
ATOM      8  C8  LG1 d5015      22.329   3.780  73.614  0.00  0.00     0.083 A 
ATOM      9  O1  LG1 d5015      23.504   4.365  73.219  0.00  0.00    -0.346 OA
ATOM     10  C9  LG1 d5015      23.316   5.430  72.281  0.00  0.00     0.218 C 
ATOM     11 BR1  LG1 d5015      18.452   1.582  75.049  0.00  0.00    -0.051 Br
ATOM     12  O2  LG1 d5015      20.065   6.583  73.504  0.00  0.00    -0.287 OA
ATOM     13  C10 LG1 d5015      22.522   7.769  72.717  0.00  0.00     0.025 C 
ENDROOT
BRANCH  13  14
ATOM     14  C11 LG1 d5015      23.696   8.404  72.198  0.00  0.00    -0.029 A 
ATOM     15  C14 LG1 d5015      24.811   8.656  72.965  0.00  0.00     0.061 A 
ATOM     16  S1  LG1 d5015      26.049   9.422  72.066  0.00  0.00    -0.113 SA
ATOM     17  C13 LG1 d5015      25.096   9.419  70.644  0.00  0.00     0.050 A 
ATOM     18  C12 LG1 d5015      23.861   8.846  70.853  0.00  0.00     0.019 A 
ENDBRANCH  13  14
TORSDOF 1
ENDMDL
MODEL 5
REMARK VINA RESULT:    -6.452      4.073      6.847
REMARK INTER + INTRA:          -6.983
REMARK INTER:                  -6.829
REMARK INTRA:                  -0.154
REMARK UNBOUND:                -0.154
REMARK  1 active torsions:
REMARK  status: ('A' for Active; 'I' for Inactive)
REMARK    1  A    between atoms: C10_13  and  C11_14 
ROOT
ATOM      1  C1  LG1 d5015      21.700   2.595  74.422  0.00  0.00     0.018 C 
ATOM      2  C2  LG1 d5015      22.667   3.670  74.087  0.00  0.00     0.193 C 
ATOM      3  C3  LG1 d5015      22.046   4.935  73.640  0.00  0.00     0.049 A 
ATOM      4  C4  LG1 d5015      22.845   5.987  73.189  0.00  0.00     0.037 A 
ATOM      5  C5  LG1 d5015      22.254   7.198  72.826  0.00  0.00     0.012 A 
ATOM      6  C6  LG1 d5015      20.872   7.363  72.923  0.00  0.00     0.022 A 
ATOM      7  C7  LG1 d5015      20.074   6.312  73.378  0.00  0.00     0.039 A 
ATOM      8  C8  LG1 d5015      20.657   5.092  73.721  0.00  0.00     0.083 A 
ATOM      9  O1  LG1 d5015      19.817   4.110  74.176  0.00  0.00    -0.346 OA
ATOM     10  C9  LG1 d5015      20.306   2.788  73.922  0.00  0.00     0.218 C 
ATOM     11 BR1  LG1 d5015      23.329   8.616  72.185  0.00  0.00    -0.051 Br
ATOM     12  O2  LG1 d5015      23.880   3.540  74.165  0.00  0.00    -0.287 OA
ATOM     13  C10 LG1 d5015      22.114   1.536  75.129  0.00  0.00     0.025 C 
ENDROOT
BRANCH  13  14
ATOM     14  C11 LG1 d5015      21.278   0.439  75.513  0.00  0.00    -0.029 A 
ATOM     15  C14 LG1 d5015      20.499   0.454  76.648  0.00  0.00     0.061 A 
ATOM     16  S1  LG1 d5015      19.612  -0.997  76.838  0.00  0.00    -0.113 SA
ATOM     17  C13 LG1 d5015      20.268  -1.652  75.400  0.00  0.00     0.050 A 
ATOM     18  C12 LG1 d5015      21.143  -0.781  74.789  0.00  0.00     0.019 A 
ENDBRANCH  13  14
TORSDOF 1
ENDMDL
