REMARK INTER + INTRA:          -7.754
REMARK INTER:                  -7.585
REMARK INTRA:                  -0.169
REMARK UNBOUND:                 0.015
REMARK  1 active torsions:
REMARK  status: ('A' for Active; 'I' for Inactive)
REMARK    1  A    between atoms: C10_13  and  C11_14 
ROOT
ATOM      1  C1  LG1 d5015      22.114   3.921  73.770  0.00  0.00     0.018 C 
ATOM      2  C2  LG1 d5015      23.088   4.809  73.089  0.00  0.00     0.193 C 
ATOM      3  C3  LG1 d5015      22.546   6.129  72.701  0.00  0.00     0.049 A 
ATOM      4  C4  LG1 d5015      23.327   7.014  71.954  0.00  0.00     0.037 A 
ATOM      5  C5  LG1 d5015      22.830   8.281  71.644  0.00  0.00     0.012 A 
ATOM      6  C6  LG1 d5015      21.564   8.668  72.086  0.00  0.00     0.022 A 
ATOM      7  C7  LG1 d5015      20.787   7.784  72.836  0.00  0.00     0.039 A 
ATOM      8  C8  LG1 d5015      21.269   6.508  73.130  0.00  0.00     0.083 A 
ATOM      9  O1  LG1 d5015      20.461   5.698  73.884  0.00  0.00    -0.346 OA
ATOM     10  C9  LG1 d5015      20.675   4.304  73.640  0.00  0.00     0.218 C 
ATOM     11 BR1  LG1 d5015      23.869   9.473  70.607  0.00  0.00    -0.051 Br
ATOM     12  O2  LG1 d5015      24.246   4.494  72.856  0.00  0.00    -0.287 OA
ATOM     13  C10 LG1 d5015      22.557   2.852  74.442  0.00  0.00     0.025 C 
ENDROOT
BRANCH  13  14
ATOM     14  C11 LG1 d5015      21.718   1.924  75.139  0.00  0.00    -0.029 A 
ATOM     15  C14 LG1 d5015      21.382   2.071  76.466  0.00  0.00     0.061 A 
ATOM     16  S1  LG1 d5015      20.366   0.807  77.015  0.00  0.00    -0.113 SA
ATOM     17  C13 LG1 d5015      20.374   0.059  75.476  0.00  0.00     0.050 A 
ATOM     18  C12 LG1 d5015      21.133   0.758  74.565  0.00  0.00     0.019 A 
ENDBRANCH  13  14
TORSDOF 1
ENDMDL
