REMARK INTER + INTRA:          -8.250
REMARK INTER:                  -8.117
REMARK INTRA:                  -0.133
REMARK UNBOUND:                -0.161
REMARK  1 active torsions:
REMARK  status: ('A' for Active; 'I' for Inactive)
REMARK    1  A    between atoms: C10_13  and  C11_14 
ROOT
ATOM      1  C1  LG1 d5015      22.739   5.557  73.190  0.00  0.00     0.018 C 
ATOM      2  C2  LG1 d5015      22.972   4.093  73.107  0.00  0.00     0.193 C 
ATOM      3  C3  LG1 d5015      21.871   3.266  73.643  0.00  0.00     0.049 A 
ATOM      4  C4  LG1 d5015      22.013   1.879  73.726  0.00  0.00     0.037 A 
ATOM      5  C5  LG1 d5015      20.946   1.101  74.176  0.00  0.00     0.012 A 
ATOM      6  C6  LG1 d5015      19.738   1.702  74.533  0.00  0.00     0.022 A 
ATOM      7  C7  LG1 d5015      19.596   3.088  74.447  0.00  0.00     0.039 A 
ATOM      8  C8  LG1 d5015      20.666   3.873  74.018  0.00  0.00     0.083 A 
ATOM      9  O1  LG1 d5015      20.452   5.224  73.940  0.00  0.00    -0.346 OA
ATOM     10  C9  LG1 d5015      21.646   5.994  74.111  0.00  0.00     0.218 C 
ATOM     11 BR1  LG1 d5015      21.142  -0.775  74.321  0.00  0.00    -0.051 Br
ATOM     12  O2  LG1 d5015      23.985   3.593  72.638  0.00  0.00    -0.287 OA
ATOM     13  C10 LG1 d5015      23.498   6.386  72.464  0.00  0.00     0.025 C 
ENDROOT
BRANCH  13  14
ATOM     14  C11 LG1 d5015      23.369   7.812  72.459  0.00  0.00    -0.029 A 
ATOM     15  C14 LG1 d5015      22.425   8.474  71.707  0.00  0.00     0.061 A 
ATOM     16  S1  LG1 d5015      22.517  10.172  71.912  0.00  0.00    -0.113 SA
ATOM     17  C13 LG1 d5015      23.822  10.024  73.009  0.00  0.00     0.050 A 
ATOM     18  C12 LG1 d5015      24.178   8.710  73.214  0.00  0.00     0.019 A 
ENDBRANCH  13  14
TORSDOF 1
ENDMDL
