REMARK INTER + INTRA:          -6.197
REMARK INTER:                  -6.016
REMARK INTRA:                  -0.180
REMARK UNBOUND:                -0.192
REMARK  1 active torsions:
REMARK  status: ('A' for Active; 'I' for Inactive)
REMARK    1  A    between atoms: C1_1  and  N1_10 
ROOT
ATOM      1  C1  LG1 d5015      20.897   1.864  75.027  0.00  0.00     0.056 A 
ATOM      2  C2  LG1 d5015      22.009   2.555  75.509  0.00  0.00    -0.033 A 
ATOM      3  C3  LG1 d5015      22.255   3.861  75.085  0.00  0.00     0.028 A 
ATOM      4  C4  LG1 d5015      21.391   4.476  74.180  0.00  0.00     0.012 A 
ATOM      5  C5  LG1 d5015      20.278   3.783  73.697  0.00  0.00     0.028 A 
ATOM      6  C6  LG1 d5015      20.033   2.478  74.121  0.00  0.00    -0.033 A 
ATOM      7  C7  LG1 d5015      18.834   1.763  73.587  0.00  0.00     0.050 C 
ATOM      8 BR1  LG1 d5015      21.726   6.245  73.605  0.00  0.00    -0.051 Br
ATOM      9  C8  LG1 d5015      22.952   1.923  76.481  0.00  0.00     0.050 C 
ENDROOT
BRANCH   1  10
ATOM     10  N1  LG1 d5015      20.642   0.520  75.464  0.00  0.00    -0.265 N 
ATOM     11  C11 LG1 d5015      19.971   0.195  76.643  0.00  0.00     0.148 C 
ATOM     12  S2  LG1 d5015      19.108   1.165  77.702  0.00  0.00    -0.052 SA
ATOM     13  S1  LG1 d5015      20.034  -1.546  76.890  0.00  0.00    -0.090 SA
ATOM     14  C10 LG1 d5015      20.698  -1.878  75.258  0.00  0.00     0.185 C 
ATOM     15  C9  LG1 d5015      21.101  -0.551  74.684  0.00  0.00     0.239 C 
ATOM     16  O1  LG1 d5015      21.771  -0.491  73.656  0.00  0.00    -0.272 OA
ENDBRANCH   1  10
TORSDOF 1
ENDMDL
