REMARK INTER + INTRA:          -7.692
REMARK INTER:                  -7.531
REMARK INTRA:                  -0.161
REMARK UNBOUND:                -0.161
REMARK  1 active torsions:
REMARK  status: ('A' for Active; 'I' for Inactive)
REMARK    1  A    between atoms: C10_13  and  C11_14 
ROOT
ATOM      1  C1  LG1 d5015      22.322   6.460  72.792  0.00  0.00     0.018 C 
ATOM      2  C2  LG1 d5015      21.067   5.934  73.384  0.00  0.00     0.193 C 
ATOM      3  C3  LG1 d5015      21.108   4.497  73.730  0.00  0.00     0.049 A 
ATOM      4  C4  LG1 d5015      19.957   3.854  74.190  0.00  0.00     0.037 A 
ATOM      5  C5  LG1 d5015      20.020   2.513  74.572  0.00  0.00     0.012 A 
ATOM      6  C6  LG1 d5015      21.228   1.819  74.505  0.00  0.00     0.022 A 
ATOM      7  C7  LG1 d5015      22.379   2.463  74.049  0.00  0.00     0.039 A 
ATOM      8  C8  LG1 d5015      22.318   3.797  73.645  0.00  0.00     0.083 A 
ATOM      9  O1  LG1 d5015      23.488   4.373  73.225  0.00  0.00    -0.346 OA
ATOM     10  C9  LG1 d5015      23.288   5.437  72.289  0.00  0.00     0.218 C 
ATOM     11 BR1  LG1 d5015      18.458   1.628  75.166  0.00  0.00    -0.051 Br
ATOM     12  O2  LG1 d5015      20.070   6.615  73.577  0.00  0.00    -0.287 OA
ATOM     13  C10 LG1 d5015      22.518   7.783  72.736  0.00  0.00     0.025 C 
ENDROOT
BRANCH  13  14
ATOM     14  C11 LG1 d5015      23.685   8.409  72.191  0.00  0.00    -0.029 A 
ATOM     15  C14 LG1 d5015      24.820   8.649  72.933  0.00  0.00     0.061 A 
ATOM     16  S1  LG1 d5015      26.044   9.407  72.005  0.00  0.00    -0.113 SA
ATOM     17  C13 LG1 d5015      25.057   9.415  70.607  0.00  0.00     0.050 A 
ATOM     18  C12 LG1 d5015      23.822   8.852  70.843  0.00  0.00     0.019 A 
ENDBRANCH  13  14
TORSDOF 1
ENDMDL
