REMARK INTER + INTRA:          -6.770
REMARK INTER:                  -6.583
REMARK INTRA:                  -0.187
REMARK UNBOUND:                -0.200
REMARK  1 active torsions:
REMARK  status: ('A' for Active; 'I' for Inactive)
REMARK    1  A    between atoms: C1_1  and  N1_10 
ROOT
ATOM      1  C1  LG1 d5015      22.749   6.752  72.512  0.00  0.00     0.056 A 
ATOM      2  C2  LG1 d5015      23.222   5.500  72.904  0.00  0.00    -0.033 A 
ATOM      3  C3  LG1 d5015      22.400   4.643  73.638  0.00  0.00     0.028 A 
ATOM      4  C4  LG1 d5015      21.107   5.038  73.979  0.00  0.00     0.012 A 
ATOM      5  C5  LG1 d5015      20.634   6.292  73.587  0.00  0.00     0.028 A 
ATOM      6  C6  LG1 d5015      21.456   7.147  72.854  0.00  0.00    -0.033 A 
ATOM      7  C7  LG1 d5015      20.921   8.483  72.449  0.00  0.00     0.050 C 
ATOM      8 BR1  LG1 d5015      19.996   3.878  74.975  0.00  0.00    -0.051 Br
ATOM      9  C8  LG1 d5015      24.602   5.048  72.552  0.00  0.00     0.050 C 
ENDROOT
BRANCH   1  10
ATOM     10  N1  LG1 d5015      23.593   7.633  71.756  0.00  0.00    -0.265 N 
ATOM     11  C11 LG1 d5015      24.374   8.643  72.319  0.00  0.00     0.148 C 
ATOM     12  S2  LG1 d5015      24.740   8.963  73.922  0.00  0.00    -0.052 SA
ATOM     13  S1  LG1 d5015      25.107   9.599  71.036  0.00  0.00    -0.090 SA
ATOM     14  C10 LG1 d5015      24.612   8.464  69.739  0.00  0.00     0.185 C 
ATOM     15  C9  LG1 d5015      23.640   7.504  70.361  0.00  0.00     0.239 C 
ATOM     16  O1  LG1 d5015      22.984   6.737  69.659  0.00  0.00    -0.272 OA
ENDBRANCH   1  10
TORSDOF 1
ENDMDL
