REMARK INTER + INTRA:          -8.251
REMARK INTER:                  -8.116
REMARK INTRA:                  -0.135
REMARK UNBOUND:                 0.015
REMARK  1 active torsions:
REMARK  status: ('A' for Active; 'I' for Inactive)
REMARK    1  A    between atoms: C10_13  and  C11_14 
ROOT
ATOM      1  C1  LG1 d5015      22.735   5.554  73.189  0.00  0.00     0.018 C 
ATOM      2  C2  LG1 d5015      22.968   4.091  73.098  0.00  0.00     0.193 C 
ATOM      3  C3  LG1 d5015      21.868   3.262  73.635  0.00  0.00     0.049 A 
ATOM      4  C4  LG1 d5015      22.010   1.875  73.711  0.00  0.00     0.037 A 
ATOM      5  C5  LG1 d5015      20.945   1.095  74.163  0.00  0.00     0.012 A 
ATOM      6  C6  LG1 d5015      19.739   1.695  74.527  0.00  0.00     0.022 A 
ATOM      7  C7  LG1 d5015      19.597   3.081  74.447  0.00  0.00     0.039 A 
ATOM      8  C8  LG1 d5015      20.665   3.868  74.018  0.00  0.00     0.083 A 
ATOM      9  O1  LG1 d5015      20.452   5.219  73.947  0.00  0.00    -0.346 OA
ATOM     10  C9  LG1 d5015      21.647   5.988  74.116  0.00  0.00     0.218 C 
ATOM     11 BR1  LG1 d5015      21.141  -0.781  74.298  0.00  0.00    -0.051 Br
ATOM     12  O2  LG1 d5015      23.978   3.593  72.623  0.00  0.00    -0.287 OA
ATOM     13  C10 LG1 d5015      23.492   6.387  72.463  0.00  0.00     0.025 C 
ENDROOT
BRANCH  13  14
ATOM     14  C11 LG1 d5015      23.363   7.813  72.466  0.00  0.00    -0.029 A 
ATOM     15  C14 LG1 d5015      22.420   8.479  71.716  0.00  0.00     0.061 A 
ATOM     16  S1  LG1 d5015      22.511  10.175  71.930  0.00  0.00    -0.113 SA
ATOM     17  C13 LG1 d5015      23.816  10.022  73.027  0.00  0.00     0.050 A 
ATOM     18  C12 LG1 d5015      24.172   8.707  73.226  0.00  0.00     0.019 A 
ENDBRANCH  13  14
TORSDOF 1
ENDMDL
