REMARK INTER + INTRA:          -6.641
REMARK INTER:                  -6.656
REMARK INTRA:                   0.015
REMARK UNBOUND:                 0.015
REMARK  1 active torsions:
REMARK  status: ('A' for Active; 'I' for Inactive)
REMARK    1  A    between atoms: C10_13  and  C11_14 
ROOT
ATOM      1  C1  LG1 d5015      21.975   4.175  73.754  0.00  0.00     0.018 C 
ATOM      2  C2  LG1 d5015      20.774   3.333  73.979  0.00  0.00     0.193 C 
ATOM      3  C3  LG1 d5015      20.981   2.210  74.917  0.00  0.00     0.049 A 
ATOM      4  C4  LG1 d5015      19.963   1.277  75.129  0.00  0.00     0.037 A 
ATOM      5  C5  LG1 d5015      20.145   0.255  76.061  0.00  0.00     0.012 A 
ATOM      6  C6  LG1 d5015      21.334   0.169  76.788  0.00  0.00     0.022 A 
ATOM      7  C7  LG1 d5015      22.349   1.104  76.579  0.00  0.00     0.039 A 
ATOM      8  C8  LG1 d5015      22.181   2.115  75.632  0.00  0.00     0.083 A 
ATOM      9  O1  LG1 d5015      23.210   3.008  75.490  0.00  0.00    -0.346 OA
ATOM     10  C9  LG1 d5015      23.279   3.584  74.181  0.00  0.00     0.218 C 
ATOM     11 BR1  LG1 d5015      18.783  -1.030  76.330  0.00  0.00    -0.051 Br
ATOM     12  O2  LG1 d5015      19.694   3.533  73.441  0.00  0.00    -0.287 OA
ATOM     13  C10 LG1 d5015      21.835   5.382  73.191  0.00  0.00     0.025 C 
ENDROOT
BRANCH  13  14
ATOM     14  C11 LG1 d5015      22.915   6.284  72.925  0.00  0.00    -0.029 A 
ATOM     15  C14 LG1 d5015      23.015   7.525  73.512  0.00  0.00     0.061 A 
ATOM     16  S1  LG1 d5015      24.413   8.369  72.998  0.00  0.00    -0.113 SA
ATOM     17  C13 LG1 d5015      24.889   7.073  71.986  0.00  0.00     0.050 A 
ATOM     18  C12 LG1 d5015      24.002   6.022  72.040  0.00  0.00     0.019 A 
ENDBRANCH  13  14
TORSDOF 1
ENDMDL
