MODEL 1
REMARK VINA RESULT:    -6.207      0.000      0.000
REMARK INTER + INTRA:          -6.770
REMARK INTER:                  -6.583
REMARK INTRA:                  -0.187
REMARK UNBOUND:                -0.200
REMARK  1 active torsions:
REMARK  status: ('A' for Active; 'I' for Inactive)
REMARK    1  A    between atoms: C1_1  and  N1_10 
ROOT
ATOM      1  C1  LG1 d5015      22.749   6.752  72.512  0.00  0.00     0.056 A 
ATOM      2  C2  LG1 d5015      23.222   5.500  72.904  0.00  0.00    -0.033 A 
ATOM      3  C3  LG1 d5015      22.400   4.643  73.638  0.00  0.00     0.028 A 
ATOM      4  C4  LG1 d5015      21.107   5.038  73.979  0.00  0.00     0.012 A 
ATOM      5  C5  LG1 d5015      20.634   6.292  73.587  0.00  0.00     0.028 A 
ATOM      6  C6  LG1 d5015      21.456   7.147  72.854  0.00  0.00    -0.033 A 
ATOM      7  C7  LG1 d5015      20.921   8.483  72.449  0.00  0.00     0.050 C 
ATOM      8 BR1  LG1 d5015      19.996   3.878  74.975  0.00  0.00    -0.051 Br
ATOM      9  C8  LG1 d5015      24.602   5.048  72.552  0.00  0.00     0.050 C 
ENDROOT
BRANCH   1  10
ATOM     10  N1  LG1 d5015      23.593   7.633  71.756  0.00  0.00    -0.265 N 
ATOM     11  C11 LG1 d5015      24.374   8.643  72.319  0.00  0.00     0.148 C 
ATOM     12  S2  LG1 d5015      24.740   8.963  73.922  0.00  0.00    -0.052 SA
ATOM     13  S1  LG1 d5015      25.107   9.599  71.036  0.00  0.00    -0.090 SA
ATOM     14  C10 LG1 d5015      24.612   8.464  69.739  0.00  0.00     0.185 C 
ATOM     15  C9  LG1 d5015      23.640   7.504  70.361  0.00  0.00     0.239 C 
ATOM     16  O1  LG1 d5015      22.984   6.737  69.659  0.00  0.00    -0.272 OA
ENDBRANCH   1  10
TORSDOF 1
ENDMDL
MODEL 2
REMARK VINA RESULT:    -6.198      0.047      2.152
REMARK INTER + INTRA:          -6.761
REMARK INTER:                  -6.585
REMARK INTRA:                  -0.176
REMARK UNBOUND:                -0.200
REMARK  1 active torsions:
REMARK  status: ('A' for Active; 'I' for Inactive)
REMARK    1  A    between atoms: C1_1  and  N1_10 
ROOT
ATOM      1  C1  LG1 d5015      22.711   6.743  72.492  0.00  0.00     0.056 A 
ATOM      2  C2  LG1 d5015      21.426   7.152  72.847  0.00  0.00    -0.033 A 
ATOM      3  C3  LG1 d5015      20.603   6.301  73.586  0.00  0.00     0.028 A 
ATOM      4  C4  LG1 d5015      21.066   5.044  73.972  0.00  0.00     0.012 A 
ATOM      5  C5  LG1 d5015      22.353   4.635  73.615  0.00  0.00     0.028 A 
ATOM      6  C6  LG1 d5015      23.174   5.485  72.876  0.00  0.00    -0.033 A 
ATOM      7  C7  LG1 d5015      24.546   5.019  72.510  0.00  0.00     0.050 C 
ATOM      8 BR1  LG1 d5015      19.951   3.892  74.972  0.00  0.00    -0.051 Br
ATOM      9  C8  LG1 d5015      20.903   8.494  72.450  0.00  0.00     0.050 C 
ENDROOT
BRANCH   1  10
ATOM     10  N1  LG1 d5015      23.559   7.618  71.732  0.00  0.00    -0.265 N 
ATOM     11  C11 LG1 d5015      24.342   8.629  72.290  0.00  0.00     0.148 C 
ATOM     12  S2  LG1 d5015      24.707   8.956  73.893  0.00  0.00    -0.052 SA
ATOM     13  S1  LG1 d5015      25.079   9.576  71.003  0.00  0.00    -0.090 SA
ATOM     14  C10 LG1 d5015      24.583   8.435  69.712  0.00  0.00     0.185 C 
ATOM     15  C9  LG1 d5015      23.607   7.481  70.338  0.00  0.00     0.239 C 
ATOM     16  O1  LG1 d5015      22.950   6.712  69.640  0.00  0.00    -0.272 OA
ENDBRANCH   1  10
TORSDOF 1
ENDMDL
MODEL 3
REMARK VINA RESULT:    -5.883      1.684      2.198
REMARK INTER + INTRA:          -6.427
REMARK INTER:                  -6.227
REMARK INTRA:                  -0.200
REMARK UNBOUND:                -0.200
REMARK  1 active torsions:
REMARK  status: ('A' for Active; 'I' for Inactive)
REMARK    1  A    between atoms: C1_1  and  N1_10 
ROOT
ATOM      1  C1  LG1 d5015      23.020   6.917  72.683  0.00  0.00     0.056 A 
ATOM      2  C2  LG1 d5015      23.425   5.600  72.896  0.00  0.00    -0.033 A 
ATOM      3  C3  LG1 d5015      22.498   4.644  73.312  0.00  0.00     0.028 A 
ATOM      4  C4  LG1 d5015      21.166   5.005  73.515  0.00  0.00     0.012 A 
ATOM      5  C5  LG1 d5015      20.761   6.325  73.303  0.00  0.00     0.028 A 
ATOM      6  C6  LG1 d5015      21.689   7.279  72.887  0.00  0.00    -0.033 A 
ATOM      7  C7  LG1 d5015      21.225   8.683  72.668  0.00  0.00     0.050 C 
ATOM      8 BR1  LG1 d5015      19.911   3.710  74.080  0.00  0.00    -0.051 Br
ATOM      9  C8  LG1 d5015      24.844   5.182  72.685  0.00  0.00     0.050 C 
ENDROOT
BRANCH   1  10
ATOM     10  N1  LG1 d5015      23.974   7.901  72.254  0.00  0.00    -0.265 N 
ATOM     11  C11 LG1 d5015      24.315   8.130  70.921  0.00  0.00     0.148 C 
ATOM     12  S2  LG1 d5015      23.612   7.564  69.509  0.00  0.00    -0.052 SA
ATOM     13  S1  LG1 d5015      25.643   9.283  70.847  0.00  0.00    -0.090 SA
ATOM     14  C10 LG1 d5015      25.545   9.694  72.590  0.00  0.00     0.185 C 
ATOM     15  C9  LG1 d5015      24.629   8.682  73.215  0.00  0.00     0.239 C 
ATOM     16  O1  LG1 d5015      24.534   8.597  74.438  0.00  0.00    -0.272 OA
ENDBRANCH   1  10
TORSDOF 1
ENDMDL
MODEL 4
REMARK VINA RESULT:    -5.678      6.037      7.946
REMARK INTER + INTRA:          -6.210
REMARK INTER:                  -6.018
REMARK INTRA:                  -0.192
REMARK UNBOUND:                -0.200
REMARK  1 active torsions:
REMARK  status: ('A' for Active; 'I' for Inactive)
REMARK    1  A    between atoms: C1_1  and  N1_10 
ROOT
ATOM      1  C1  LG1 d5015      20.881   1.825  75.002  0.00  0.00     0.056 A 
ATOM      2  C2  LG1 d5015      20.022   2.444  74.095  0.00  0.00    -0.033 A 
ATOM      3  C3  LG1 d5015      20.276   3.751  73.676  0.00  0.00     0.028 A 
ATOM      4  C4  LG1 d5015      21.388   4.437  74.163  0.00  0.00     0.012 A 
ATOM      5  C5  LG1 d5015      22.248   3.816  75.071  0.00  0.00     0.028 A 
ATOM      6  C6  LG1 d5015      21.993   2.511  75.490  0.00  0.00    -0.033 A 
ATOM      7  C7  LG1 d5015      22.932   1.873  76.463  0.00  0.00     0.050 C 
ATOM      8 BR1  LG1 d5015      21.730   6.207  73.595  0.00  0.00    -0.051 Br
ATOM      9  C8  LG1 d5015      18.823   1.735  73.554  0.00  0.00     0.050 C 
ENDROOT
BRANCH   1  10
ATOM     10  N1  LG1 d5015      20.622   0.480  75.433  0.00  0.00    -0.265 N 
ATOM     11  C11 LG1 d5015      19.931   0.152  76.599  0.00  0.00     0.148 C 
ATOM     12  S2  LG1 d5015      19.048   1.120  77.645  0.00  0.00    -0.052 SA
ATOM     13  S1  LG1 d5015      19.993  -1.589  76.846  0.00  0.00    -0.090 SA
ATOM     14  C10 LG1 d5015      20.686  -1.918  75.225  0.00  0.00     0.185 C 
ATOM     15  C9  LG1 d5015      21.096  -0.589  74.660  0.00  0.00     0.239 C 
ATOM     16  O1  LG1 d5015      21.784  -0.528  73.643  0.00  0.00    -0.272 OA
ENDBRANCH   1  10
TORSDOF 1
ENDMDL
MODEL 5
REMARK VINA RESULT:    -5.661      6.014      7.743
REMARK INTER + INTRA:          -6.192
REMARK INTER:                  -6.008
REMARK INTRA:                  -0.184
REMARK UNBOUND:                -0.200
REMARK  1 active torsions:
REMARK  status: ('A' for Active; 'I' for Inactive)
REMARK    1  A    between atoms: C1_1  and  N1_10 
ROOT
ATOM      1  C1  LG1 d5015      20.886   1.873  75.021  0.00  0.00     0.056 A 
ATOM      2  C2  LG1 d5015      21.997   2.568  75.498  0.00  0.00    -0.033 A 
ATOM      3  C3  LG1 d5015      22.239   3.874  75.072  0.00  0.00     0.028 A 
ATOM      4  C4  LG1 d5015      21.369   4.486  74.170  0.00  0.00     0.012 A 
ATOM      5  C5  LG1 d5015      20.258   3.790  73.691  0.00  0.00     0.028 A 
ATOM      6  C6  LG1 d5015      20.017   2.485  74.117  0.00  0.00    -0.033 A 
ATOM      7  C7  LG1 d5015      18.819   1.765  73.587  0.00  0.00     0.050 C 
ATOM      8 BR1  LG1 d5015      21.698   6.256  73.592  0.00  0.00    -0.051 Br
ATOM      9  C8  LG1 d5015      22.946   1.940  76.467  0.00  0.00     0.050 C 
ENDROOT
BRANCH   1  10
ATOM     10  N1  LG1 d5015      20.637   0.529  75.459  0.00  0.00    -0.265 N 
ATOM     11  C11 LG1 d5015      19.965   0.203  76.637  0.00  0.00     0.148 C 
ATOM     12  S2  LG1 d5015      19.096   1.171  77.694  0.00  0.00    -0.052 SA
ATOM     13  S1  LG1 d5015      20.035  -1.538  76.888  0.00  0.00    -0.090 SA
ATOM     14  C10 LG1 d5015      20.705  -1.869  75.258  0.00  0.00     0.185 C 
ATOM     15  C9  LG1 d5015      21.102  -0.540  74.682  0.00  0.00     0.239 C 
ATOM     16  O1  LG1 d5015      21.774  -0.480  73.655  0.00  0.00    -0.272 OA
ENDBRANCH   1  10
TORSDOF 1
ENDMDL
