REMARK INTER + INTRA:          -7.685
REMARK INTER:                  -7.523
REMARK INTRA:                  -0.162
REMARK UNBOUND:                -0.154
REMARK  1 active torsions:
REMARK  status: ('A' for Active; 'I' for Inactive)
REMARK    1  A    between atoms: C10_13  and  C11_14 
ROOT
ATOM      1  C1  LG1 d5015      22.334   6.445  72.767  0.00  0.00     0.018 C 
ATOM      2  C2  LG1 d5015      21.070   5.909  73.331  0.00  0.00     0.193 C 
ATOM      3  C3  LG1 d5015      21.113   4.472  73.675  0.00  0.00     0.049 A 
ATOM      4  C4  LG1 d5015      19.957   3.821  74.109  0.00  0.00     0.037 A 
ATOM      5  C5  LG1 d5015      20.021   2.480  74.489  0.00  0.00     0.012 A 
ATOM      6  C6  LG1 d5015      21.235   1.793  74.446  0.00  0.00     0.022 A 
ATOM      7  C7  LG1 d5015      22.391   2.446  74.015  0.00  0.00     0.039 A 
ATOM      8  C8  LG1 d5015      22.329   3.780  73.614  0.00  0.00     0.083 A 
ATOM      9  O1  LG1 d5015      23.504   4.365  73.219  0.00  0.00    -0.346 OA
ATOM     10  C9  LG1 d5015      23.316   5.430  72.281  0.00  0.00     0.218 C 
ATOM     11 BR1  LG1 d5015      18.452   1.582  75.049  0.00  0.00    -0.051 Br
ATOM     12  O2  LG1 d5015      20.065   6.583  73.504  0.00  0.00    -0.287 OA
ATOM     13  C10 LG1 d5015      22.522   7.769  72.717  0.00  0.00     0.025 C 
ENDROOT
BRANCH  13  14
ATOM     14  C11 LG1 d5015      23.696   8.404  72.198  0.00  0.00    -0.029 A 
ATOM     15  C14 LG1 d5015      24.811   8.656  72.965  0.00  0.00     0.061 A 
ATOM     16  S1  LG1 d5015      26.049   9.422  72.066  0.00  0.00    -0.113 SA
ATOM     17  C13 LG1 d5015      25.096   9.419  70.644  0.00  0.00     0.050 A 
ATOM     18  C12 LG1 d5015      23.861   8.846  70.853  0.00  0.00     0.019 A 
ENDBRANCH  13  14
TORSDOF 1
ENDMDL
