REMARK INTER + INTRA:          -7.938
REMARK INTER:                  -7.776
REMARK INTRA:                  -0.162
REMARK UNBOUND:                 0.015
REMARK  1 active torsions:
REMARK  status: ('A' for Active; 'I' for Inactive)
REMARK    1  A    between atoms: C10_13  and  C11_14 
ROOT
ATOM      1  C1  LG1 d5015      21.558   3.816  74.033  0.00  0.00     0.018 C 
ATOM      2  C2  LG1 d5015      21.137   5.193  73.673  0.00  0.00     0.193 C 
ATOM      3  C3  LG1 d5015      22.220   6.046  73.141  0.00  0.00     0.049 A 
ATOM      4  C4  LG1 d5015      21.981   7.395  72.870  0.00  0.00     0.037 A 
ATOM      5  C5  LG1 d5015      22.992   8.178  72.311  0.00  0.00     0.012 A 
ATOM      6  C6  LG1 d5015      24.234   7.616  72.014  0.00  0.00     0.022 A 
ATOM      7  C7  LG1 d5015      24.471   6.267  72.281  0.00  0.00     0.039 A 
ATOM      8  C8  LG1 d5015      23.471   5.484  72.860  0.00  0.00     0.083 A 
ATOM      9  O1  LG1 d5015      23.766   4.165  73.080  0.00  0.00    -0.346 OA
ATOM     10  C9  LG1 d5015      23.030   3.597  74.168  0.00  0.00     0.218 C 
ATOM     11 BR1  LG1 d5015      22.684  10.013  71.971  0.00  0.00    -0.051 Br
ATOM     12  O2  LG1 d5015      19.994   5.608  73.800  0.00  0.00    -0.287 OA
ATOM     13  C10 LG1 d5015      20.629   2.871  74.217  0.00  0.00     0.025 C 
ENDROOT
BRANCH  13  14
ATOM     14  C11 LG1 d5015      20.911   1.511  74.565  0.00  0.00    -0.029 A 
ATOM     15  C14 LG1 d5015      21.043   1.084  75.867  0.00  0.00     0.061 A 
ATOM     16  S1  LG1 d5015      21.376  -0.592  75.962  0.00  0.00    -0.113 SA
ATOM     17  C13 LG1 d5015      21.345  -0.751  74.259  0.00  0.00     0.050 A 
ATOM     18  C12 LG1 d5015      21.086   0.447  73.632  0.00  0.00     0.019 A 
ENDBRANCH  13  14
TORSDOF 1
ENDMDL
