REMARK INTER + INTRA:          -7.695
REMARK INTER:                  -7.532
REMARK INTRA:                  -0.164
REMARK UNBOUND:                 0.015
REMARK  1 active torsions:
REMARK  status: ('A' for Active; 'I' for Inactive)
REMARK    1  A    between atoms: C10_13  and  C11_14 
ROOT
ATOM      1  C1  LG1 d5015      22.315   6.449  72.762  0.00  0.00     0.018 C 
ATOM      2  C2  LG1 d5015      21.058   5.905  73.335  0.00  0.00     0.193 C 
ATOM      3  C3  LG1 d5015      21.113   4.468  73.676  0.00  0.00     0.049 A 
ATOM      4  C4  LG1 d5015      19.963   3.809  74.117  0.00  0.00     0.037 A 
ATOM      5  C5  LG1 d5015      20.037   2.468  74.494  0.00  0.00     0.012 A 
ATOM      6  C6  LG1 d5015      21.255   1.789  74.442  0.00  0.00     0.022 A 
ATOM      7  C7  LG1 d5015      22.404   2.449  74.004  0.00  0.00     0.039 A 
ATOM      8  C8  LG1 d5015      22.332   3.783  73.605  0.00  0.00     0.083 A 
ATOM      9  O1  LG1 d5015      23.500   4.375  73.203  0.00  0.00    -0.346 OA
ATOM     10  C9  LG1 d5015      23.300   5.441  72.268  0.00  0.00     0.218 C 
ATOM     11 BR1  LG1 d5015      18.478   1.561  75.063  0.00  0.00    -0.051 Br
ATOM     12  O2  LG1 d5015      20.050   6.573  73.515  0.00  0.00    -0.287 OA
ATOM     13  C10 LG1 d5015      22.495   7.775  72.714  0.00  0.00     0.025 C 
ENDROOT
BRANCH  13  14
ATOM     14  C11 LG1 d5015      23.662   8.417  72.187  0.00  0.00    -0.029 A 
ATOM     15  C14 LG1 d5015      24.777   8.683  72.949  0.00  0.00     0.061 A 
ATOM     16  S1  LG1 d5015      26.006   9.454  72.041  0.00  0.00    -0.113 SA
ATOM     17  C13 LG1 d5015      25.047   9.436  70.624  0.00  0.00     0.050 A 
ATOM     18  C12 LG1 d5015      23.818   8.854  70.839  0.00  0.00     0.019 A 
ENDBRANCH  13  14
TORSDOF 1
ENDMDL
