REMARK INTER + INTRA:          -7.688
REMARK INTER:                  -7.525
REMARK INTRA:                  -0.163
REMARK UNBOUND:                 0.015
REMARK  1 active torsions:
REMARK  status: ('A' for Active; 'I' for Inactive)
REMARK    1  A    between atoms: C10_13  and  C11_14 
ROOT
ATOM      1  C1  LG1 d5015      22.343   6.474  72.802  0.00  0.00     0.018 C 
ATOM      2  C2  LG1 d5015      21.086   5.940  73.383  0.00  0.00     0.193 C 
ATOM      3  C3  LG1 d5015      21.137   4.506  73.740  0.00  0.00     0.049 A 
ATOM      4  C4  LG1 d5015      19.987   3.855  74.191  0.00  0.00     0.037 A 
ATOM      5  C5  LG1 d5015      20.058   2.517  74.582  0.00  0.00     0.012 A 
ATOM      6  C6  LG1 d5015      21.274   1.834  74.534  0.00  0.00     0.022 A 
ATOM      7  C7  LG1 d5015      22.424   2.487  74.086  0.00  0.00     0.039 A 
ATOM      8  C8  LG1 d5015      22.354   3.817  73.673  0.00  0.00     0.083 A 
ATOM      9  O1  LG1 d5015      23.523   4.401  73.262  0.00  0.00    -0.346 OA
ATOM     10  C9  LG1 d5015      23.324   5.457  72.316  0.00  0.00     0.218 C 
ATOM     11 BR1  LG1 d5015      18.498   1.621  75.165  0.00  0.00    -0.051 Br
ATOM     12  O2  LG1 d5015      20.081   6.612  73.560  0.00  0.00    -0.287 OA
ATOM     13  C10 LG1 d5015      22.527   7.798  72.739  0.00  0.00     0.025 C 
ENDROOT
BRANCH  13  14
ATOM     14  C11 LG1 d5015      23.694   8.431  72.203  0.00  0.00    -0.029 A 
ATOM     15  C14 LG1 d5015      24.813   8.700  72.959  0.00  0.00     0.061 A 
ATOM     16  S1  LG1 d5015      26.042   9.460  72.040  0.00  0.00    -0.113 SA
ATOM     17  C13 LG1 d5015      25.078   9.431  70.626  0.00  0.00     0.050 A 
ATOM     18  C12 LG1 d5015      23.848   8.855  70.850  0.00  0.00     0.019 A 
ENDBRANCH  13  14
TORSDOF 1
ENDMDL
