MODEL 1
REMARK VINA RESULT:    -6.204      0.000      0.000
REMARK INTER + INTRA:          -6.770
REMARK INTER:                  -6.590
REMARK INTRA:                  -0.180
REMARK UNBOUND:                -0.204
REMARK  1 active torsions:
REMARK  status: ('A' for Active; 'I' for Inactive)
REMARK    1  A    between atoms: C1_1  and  N1_10 
ROOT
ATOM      1  C1  LG1 d5015      22.728   6.754  72.488  0.00  0.00     0.056 A 
ATOM      2  C2  LG1 d5015      21.440   7.157  72.841  0.00  0.00    -0.033 A 
ATOM      3  C3  LG1 d5015      20.623   6.305  73.585  0.00  0.00     0.028 A 
ATOM      4  C4  LG1 d5015      21.092   5.052  73.976  0.00  0.00     0.012 A 
ATOM      5  C5  LG1 d5015      22.381   4.648  73.622  0.00  0.00     0.028 A 
ATOM      6  C6  LG1 d5015      23.197   5.499  72.879  0.00  0.00    -0.033 A 
ATOM      7  C7  LG1 d5015      24.572   5.039  72.515  0.00  0.00     0.050 C 
ATOM      8 BR1  LG1 d5015      19.983   3.899  74.982  0.00  0.00    -0.051 Br
ATOM      9  C8  LG1 d5015      20.910   8.494  72.438  0.00  0.00     0.050 C 
ENDROOT
BRANCH   1  10
ATOM     10  N1  LG1 d5015      23.571   7.630  71.724  0.00  0.00    -0.265 N 
ATOM     11  C11 LG1 d5015      24.350   8.645  72.278  0.00  0.00     0.148 C 
ATOM     12  S2  LG1 d5015      24.715   8.981  73.879  0.00  0.00    -0.052 SA
ATOM     13  S1  LG1 d5015      25.081   9.591  70.986  0.00  0.00    -0.090 SA
ATOM     14  C10 LG1 d5015      24.590   8.443  69.700  0.00  0.00     0.185 C 
ATOM     15  C9  LG1 d5015      23.618   7.487  70.330  0.00  0.00     0.239 C 
ATOM     16  O1  LG1 d5015      22.965   6.712  69.636  0.00  0.00    -0.272 OA
ENDBRANCH   1  10
TORSDOF 1
ENDMDL
MODEL 2
REMARK VINA RESULT:    -6.194      0.036      2.152
REMARK INTER + INTRA:          -6.760
REMARK INTER:                  -6.584
REMARK INTRA:                  -0.176
REMARK UNBOUND:                -0.204
REMARK  1 active torsions:
REMARK  status: ('A' for Active; 'I' for Inactive)
REMARK    1  A    between atoms: C1_1  and  N1_10 
ROOT
ATOM      1  C1  LG1 d5015      22.707   6.734  72.494  0.00  0.00     0.056 A 
ATOM      2  C2  LG1 d5015      23.167   5.477  72.886  0.00  0.00    -0.033 A 
ATOM      3  C3  LG1 d5015      22.341   4.634  73.630  0.00  0.00     0.028 A 
ATOM      4  C4  LG1 d5015      21.056   5.048  73.982  0.00  0.00     0.012 A 
ATOM      5  C5  LG1 d5015      20.597   6.307  73.590  0.00  0.00     0.028 A 
ATOM      6  C6  LG1 d5015      21.423   7.149  72.847  0.00  0.00    -0.033 A 
ATOM      7  C7  LG1 d5015      20.903   8.490  72.442  0.00  0.00     0.050 C 
ATOM      8 BR1  LG1 d5015      19.938   3.905  74.991  0.00  0.00    -0.051 Br
ATOM      9  C8  LG1 d5015      24.537   5.006  72.523  0.00  0.00     0.050 C 
ENDROOT
BRANCH   1  10
ATOM     10  N1  LG1 d5015      23.556   7.602  71.728  0.00  0.00    -0.265 N 
ATOM     11  C11 LG1 d5015      24.343   8.614  72.278  0.00  0.00     0.148 C 
ATOM     12  S2  LG1 d5015      24.711   8.951  73.879  0.00  0.00    -0.052 SA
ATOM     13  S1  LG1 d5015      25.081   9.550  70.984  0.00  0.00    -0.090 SA
ATOM     14  C10 LG1 d5015      24.581   8.403  69.702  0.00  0.00     0.185 C 
ATOM     15  C9  LG1 d5015      23.603   7.455  70.334  0.00  0.00     0.239 C 
ATOM     16  O1  LG1 d5015      22.943   6.683  69.642  0.00  0.00    -0.272 OA
ENDBRANCH   1  10
TORSDOF 1
ENDMDL
MODEL 3
REMARK VINA RESULT:    -5.874      1.694      2.205
REMARK INTER + INTRA:          -6.422
REMARK INTER:                  -6.218
REMARK INTRA:                  -0.204
REMARK UNBOUND:                -0.204
REMARK  1 active torsions:
REMARK  status: ('A' for Active; 'I' for Inactive)
REMARK    1  A    between atoms: C1_1  and  N1_10 
ROOT
ATOM      1  C1  LG1 d5015      23.033   6.918  72.694  0.00  0.00     0.056 A 
ATOM      2  C2  LG1 d5015      21.702   7.281  72.897  0.00  0.00    -0.033 A 
ATOM      3  C3  LG1 d5015      20.778   6.330  73.329  0.00  0.00     0.028 A 
ATOM      4  C4  LG1 d5015      21.184   5.015  73.557  0.00  0.00     0.012 A 
ATOM      5  C5  LG1 d5015      22.516   4.651  73.352  0.00  0.00     0.028 A 
ATOM      6  C6  LG1 d5015      23.439   5.603  72.921  0.00  0.00    -0.033 A 
ATOM      7  C7  LG1 d5015      24.858   5.183  72.710  0.00  0.00     0.050 C 
ATOM      8 BR1  LG1 d5015      19.930   3.726  74.139  0.00  0.00    -0.051 Br
ATOM      9  C8  LG1 d5015      21.237   8.682  72.663  0.00  0.00     0.050 C 
ENDROOT
BRANCH   1  10
ATOM     10  N1  LG1 d5015      23.985   7.897  72.251  0.00  0.00    -0.265 N 
ATOM     11  C11 LG1 d5015      24.315   8.119  70.914  0.00  0.00     0.148 C 
ATOM     12  S2  LG1 d5015      23.598   7.546  69.511  0.00  0.00    -0.052 SA
ATOM     13  S1  LG1 d5015      25.645   9.268  70.823  0.00  0.00    -0.090 SA
ATOM     14  C10 LG1 d5015      25.563   9.688  72.564  0.00  0.00     0.185 C 
ATOM     15  C9  LG1 d5015      24.651   8.682  73.203  0.00  0.00     0.239 C 
ATOM     16  O1  LG1 d5015      24.565   8.604  74.427  0.00  0.00    -0.272 OA
ENDBRANCH   1  10
TORSDOF 1
ENDMDL
MODEL 4
REMARK VINA RESULT:    -5.676      6.031      7.924
REMARK INTER + INTRA:          -6.212
REMARK INTER:                  -6.024
REMARK INTRA:                  -0.188
REMARK UNBOUND:                -0.204
REMARK  1 active torsions:
REMARK  status: ('A' for Active; 'I' for Inactive)
REMARK    1  A    between atoms: C1_1  and  N1_10 
ROOT
ATOM      1  C1  LG1 d5015      20.873   1.847  74.993  0.00  0.00     0.056 A 
ATOM      2  C2  LG1 d5015      21.979   2.552  75.466  0.00  0.00    -0.033 A 
ATOM      3  C3  LG1 d5015      22.202   3.863  75.045  0.00  0.00     0.028 A 
ATOM      4  C4  LG1 d5015      21.319   4.469  74.152  0.00  0.00     0.012 A 
ATOM      5  C5  LG1 d5015      20.212   3.763  73.677  0.00  0.00     0.028 A 
ATOM      6  C6  LG1 d5015      19.990   2.453  74.098  0.00  0.00    -0.033 A 
ATOM      7  C7  LG1 d5015      18.797   1.722  73.573  0.00  0.00     0.050 C 
ATOM      8 BR1  LG1 d5015      21.623   6.246  73.581  0.00  0.00    -0.051 Br
ATOM      9  C8  LG1 d5015      22.941   1.930  76.426  0.00  0.00     0.050 C 
ENDROOT
BRANCH   1  10
ATOM     10  N1  LG1 d5015      20.642   0.498  75.426  0.00  0.00    -0.265 N 
ATOM     11  C11 LG1 d5015      19.979   0.158  76.606  0.00  0.00     0.148 C 
ATOM     12  S2  LG1 d5015      19.103   1.111  77.671  0.00  0.00    -0.052 SA
ATOM     13  S1  LG1 d5015      20.072  -1.583  76.847  0.00  0.00    -0.090 SA
ATOM     14  C10 LG1 d5015      20.738  -1.898  75.213  0.00  0.00     0.185 C 
ATOM     15  C9  LG1 d5015      21.116  -0.562  74.642  0.00  0.00     0.239 C 
ATOM     16  O1  LG1 d5015      21.782  -0.489  73.612  0.00  0.00    -0.272 OA
ENDBRANCH   1  10
TORSDOF 1
ENDMDL
MODEL 5
REMARK VINA RESULT:    -5.668      6.030      7.764
REMARK INTER + INTRA:          -6.204
REMARK INTER:                  -6.020
REMARK INTRA:                  -0.184
REMARK UNBOUND:                -0.204
REMARK  1 active torsions:
REMARK  status: ('A' for Active; 'I' for Inactive)
REMARK    1  A    between atoms: C1_1  and  N1_10 
ROOT
ATOM      1  C1  LG1 d5015      20.882   1.842  75.006  0.00  0.00     0.056 A 
ATOM      2  C2  LG1 d5015      20.015   2.448  74.097  0.00  0.00    -0.033 A 
ATOM      3  C3  LG1 d5015      20.256   3.753  73.667  0.00  0.00     0.028 A 
ATOM      4  C4  LG1 d5015      21.364   4.452  74.146  0.00  0.00     0.012 A 
ATOM      5  C5  LG1 d5015      22.231   3.845  75.057  0.00  0.00     0.028 A 
ATOM      6  C6  LG1 d5015      21.989   2.541  75.486  0.00  0.00    -0.033 A 
ATOM      7  C7  LG1 d5015      22.935   1.918  76.461  0.00  0.00     0.050 C 
ATOM      8 BR1  LG1 d5015      21.690   6.221  73.564  0.00  0.00    -0.051 Br
ATOM      9  C8  LG1 d5015      18.820   1.724  73.565  0.00  0.00     0.050 C 
ENDROOT
BRANCH   1  10
ATOM     10  N1  LG1 d5015      20.634   0.499  75.448  0.00  0.00    -0.265 N 
ATOM     11  C11 LG1 d5015      19.962   0.173  76.626  0.00  0.00     0.148 C 
ATOM     12  S2  LG1 d5015      19.091   1.143  77.680  0.00  0.00    -0.052 SA
ATOM     13  S1  LG1 d5015      20.036  -1.567  76.880  0.00  0.00    -0.090 SA
ATOM     14  C10 LG1 d5015      20.706  -1.900  75.252  0.00  0.00     0.185 C 
ATOM     15  C9  LG1 d5015      21.102  -0.572  74.673  0.00  0.00     0.239 C 
ATOM     16  O1  LG1 d5015      21.773  -0.513  73.645  0.00  0.00    -0.272 OA
ENDBRANCH   1  10
TORSDOF 1
ENDMDL
