REMARK INTER + INTRA:          -6.760
REMARK INTER:                  -6.584
REMARK INTRA:                  -0.176
REMARK UNBOUND:                -0.204
REMARK  1 active torsions:
REMARK  status: ('A' for Active; 'I' for Inactive)
REMARK    1  A    between atoms: C1_1  and  N1_10 
ROOT
ATOM      1  C1  LG1 d5015      22.707   6.734  72.494  0.00  0.00     0.056 A 
ATOM      2  C2  LG1 d5015      23.167   5.477  72.886  0.00  0.00    -0.033 A 
ATOM      3  C3  LG1 d5015      22.341   4.634  73.630  0.00  0.00     0.028 A 
ATOM      4  C4  LG1 d5015      21.056   5.048  73.982  0.00  0.00     0.012 A 
ATOM      5  C5  LG1 d5015      20.597   6.307  73.590  0.00  0.00     0.028 A 
ATOM      6  C6  LG1 d5015      21.423   7.149  72.847  0.00  0.00    -0.033 A 
ATOM      7  C7  LG1 d5015      20.903   8.490  72.442  0.00  0.00     0.050 C 
ATOM      8 BR1  LG1 d5015      19.938   3.905  74.991  0.00  0.00    -0.051 Br
ATOM      9  C8  LG1 d5015      24.537   5.006  72.523  0.00  0.00     0.050 C 
ENDROOT
BRANCH   1  10
ATOM     10  N1  LG1 d5015      23.556   7.602  71.728  0.00  0.00    -0.265 N 
ATOM     11  C11 LG1 d5015      24.343   8.614  72.278  0.00  0.00     0.148 C 
ATOM     12  S2  LG1 d5015      24.711   8.951  73.879  0.00  0.00    -0.052 SA
ATOM     13  S1  LG1 d5015      25.081   9.550  70.984  0.00  0.00    -0.090 SA
ATOM     14  C10 LG1 d5015      24.581   8.403  69.702  0.00  0.00     0.185 C 
ATOM     15  C9  LG1 d5015      23.603   7.455  70.334  0.00  0.00     0.239 C 
ATOM     16  O1  LG1 d5015      22.943   6.683  69.642  0.00  0.00    -0.272 OA
ENDBRANCH   1  10
TORSDOF 1
ENDMDL
