REMARK INTER + INTRA:          -6.210
REMARK INTER:                  -6.018
REMARK INTRA:                  -0.192
REMARK UNBOUND:                -0.200
REMARK  1 active torsions:
REMARK  status: ('A' for Active; 'I' for Inactive)
REMARK    1  A    between atoms: C1_1  and  N1_10 
ROOT
ATOM      1  C1  LG1 d5015      20.881   1.825  75.002  0.00  0.00     0.056 A 
ATOM      2  C2  LG1 d5015      20.022   2.444  74.095  0.00  0.00    -0.033 A 
ATOM      3  C3  LG1 d5015      20.276   3.751  73.676  0.00  0.00     0.028 A 
ATOM      4  C4  LG1 d5015      21.388   4.437  74.163  0.00  0.00     0.012 A 
ATOM      5  C5  LG1 d5015      22.248   3.816  75.071  0.00  0.00     0.028 A 
ATOM      6  C6  LG1 d5015      21.993   2.511  75.490  0.00  0.00    -0.033 A 
ATOM      7  C7  LG1 d5015      22.932   1.873  76.463  0.00  0.00     0.050 C 
ATOM      8 BR1  LG1 d5015      21.730   6.207  73.595  0.00  0.00    -0.051 Br
ATOM      9  C8  LG1 d5015      18.823   1.735  73.554  0.00  0.00     0.050 C 
ENDROOT
BRANCH   1  10
ATOM     10  N1  LG1 d5015      20.622   0.480  75.433  0.00  0.00    -0.265 N 
ATOM     11  C11 LG1 d5015      19.931   0.152  76.599  0.00  0.00     0.148 C 
ATOM     12  S2  LG1 d5015      19.048   1.120  77.645  0.00  0.00    -0.052 SA
ATOM     13  S1  LG1 d5015      19.993  -1.589  76.846  0.00  0.00    -0.090 SA
ATOM     14  C10 LG1 d5015      20.686  -1.918  75.225  0.00  0.00     0.185 C 
ATOM     15  C9  LG1 d5015      21.096  -0.589  74.660  0.00  0.00     0.239 C 
ATOM     16  O1  LG1 d5015      21.784  -0.528  73.643  0.00  0.00    -0.272 OA
ENDBRANCH   1  10
TORSDOF 1
ENDMDL
