MODEL 1
REMARK VINA RESULT:    -7.809      0.000      0.000
REMARK INTER + INTRA:          -8.250
REMARK INTER:                  -8.120
REMARK INTRA:                  -0.131
REMARK UNBOUND:                 0.015
REMARK  1 active torsions:
REMARK  status: ('A' for Active; 'I' for Inactive)
REMARK    1  A    between atoms: C10_13  and  C11_14 
ROOT
ATOM      1  C1  LG1 d5015      22.736   5.560  73.195  0.00  0.00     0.018 C 
ATOM      2  C2  LG1 d5015      22.966   4.096  73.109  0.00  0.00     0.193 C 
ATOM      3  C3  LG1 d5015      21.861   3.270  73.640  0.00  0.00     0.049 A 
ATOM      4  C4  LG1 d5015      22.000   1.883  73.721  0.00  0.00     0.037 A 
ATOM      5  C5  LG1 d5015      20.930   1.107  74.167  0.00  0.00     0.012 A 
ATOM      6  C6  LG1 d5015      19.722   1.710  74.521  0.00  0.00     0.022 A 
ATOM      7  C7  LG1 d5015      19.583   3.096  74.437  0.00  0.00     0.039 A 
ATOM      8  C8  LG1 d5015      20.657   3.879  74.013  0.00  0.00     0.083 A 
ATOM      9  O1  LG1 d5015      20.446   5.231  73.937  0.00  0.00    -0.346 OA
ATOM     10  C9  LG1 d5015      21.642   5.998  74.113  0.00  0.00     0.218 C 
ATOM     11 BR1  LG1 d5015      21.121  -0.770  74.308  0.00  0.00    -0.051 Br
ATOM     12  O2  LG1 d5015      23.979   3.595  72.643  0.00  0.00    -0.287 OA
ATOM     13  C10 LG1 d5015      23.500   6.389  72.472  0.00  0.00     0.025 C 
ENDROOT
BRANCH  13  14
ATOM     14  C11 LG1 d5015      23.374   7.815  72.470  0.00  0.00    -0.029 A 
ATOM     15  C14 LG1 d5015      22.430   8.481  71.720  0.00  0.00     0.061 A 
ATOM     16  S1  LG1 d5015      22.525  10.177  71.927  0.00  0.00    -0.113 SA
ATOM     17  C13 LG1 d5015      23.832  10.025  73.023  0.00  0.00     0.050 A 
ATOM     18  C12 LG1 d5015      24.186   8.710  73.225  0.00  0.00     0.019 A 
ENDBRANCH  13  14
TORSDOF 1
ENDMDL
MODEL 2
REMARK VINA RESULT:    -7.518      3.922      6.944
REMARK INTER + INTRA:          -7.942
REMARK INTER:                  -7.779
REMARK INTRA:                  -0.163
REMARK UNBOUND:                 0.015
REMARK  1 active torsions:
REMARK  status: ('A' for Active; 'I' for Inactive)
REMARK    1  A    between atoms: C10_13  and  C11_14 
ROOT
ATOM      1  C1  LG1 d5015      21.571   3.840  74.011  0.00  0.00     0.018 C 
ATOM      2  C2  LG1 d5015      21.148   5.224  73.682  0.00  0.00     0.193 C 
ATOM      3  C3  LG1 d5015      22.224   6.082  73.142  0.00  0.00     0.049 A 
ATOM      4  C4  LG1 d5015      21.985   7.436  72.898  0.00  0.00     0.037 A 
ATOM      5  C5  LG1 d5015      22.988   8.224  72.332  0.00  0.00     0.012 A 
ATOM      6  C6  LG1 d5015      24.221   7.662  72.001  0.00  0.00     0.022 A 
ATOM      7  C7  LG1 d5015      24.458   6.308  72.242  0.00  0.00     0.039 A 
ATOM      8  C8  LG1 d5015      23.468   5.520  72.828  0.00  0.00     0.083 A 
ATOM      9  O1  LG1 d5015      23.761   4.196  73.020  0.00  0.00    -0.346 OA
ATOM     10  C9  LG1 d5015      23.045   3.613  74.113  0.00  0.00     0.218 C 
ATOM     11 BR1  LG1 d5015      22.681  10.066  72.028  0.00  0.00    -0.051 Br
ATOM     12  O2  LG1 d5015      20.009   5.641  73.838  0.00  0.00    -0.287 OA
ATOM     13  C10 LG1 d5015      20.642   2.896  74.198  0.00  0.00     0.025 C 
ENDROOT
BRANCH  13  14
ATOM     14  C11 LG1 d5015      20.925   1.529  74.517  0.00  0.00    -0.029 A 
ATOM     15  C14 LG1 d5015      21.078   1.079  75.810  0.00  0.00     0.061 A 
ATOM     16  S1  LG1 d5015      21.408  -0.599  75.872  0.00  0.00    -0.113 SA
ATOM     17  C13 LG1 d5015      21.347  -0.729  74.165  0.00  0.00     0.050 A 
ATOM     18  C12 LG1 d5015      21.080   0.480  73.564  0.00  0.00     0.019 A 
ENDBRANCH  13  14
TORSDOF 1
ENDMDL
MODEL 3
REMARK VINA RESULT:    -7.340      3.870      6.523
REMARK INTER + INTRA:          -7.754
REMARK INTER:                  -7.585
REMARK INTRA:                  -0.169
REMARK UNBOUND:                 0.015
REMARK  1 active torsions:
REMARK  status: ('A' for Active; 'I' for Inactive)
REMARK    1  A    between atoms: C10_13  and  C11_14 
ROOT
ATOM      1  C1  LG1 d5015      22.114   3.921  73.770  0.00  0.00     0.018 C 
ATOM      2  C2  LG1 d5015      23.088   4.809  73.089  0.00  0.00     0.193 C 
ATOM      3  C3  LG1 d5015      22.546   6.129  72.701  0.00  0.00     0.049 A 
ATOM      4  C4  LG1 d5015      23.327   7.014  71.954  0.00  0.00     0.037 A 
ATOM      5  C5  LG1 d5015      22.830   8.281  71.644  0.00  0.00     0.012 A 
ATOM      6  C6  LG1 d5015      21.564   8.668  72.086  0.00  0.00     0.022 A 
ATOM      7  C7  LG1 d5015      20.787   7.784  72.836  0.00  0.00     0.039 A 
ATOM      8  C8  LG1 d5015      21.269   6.508  73.130  0.00  0.00     0.083 A 
ATOM      9  O1  LG1 d5015      20.461   5.698  73.884  0.00  0.00    -0.346 OA
ATOM     10  C9  LG1 d5015      20.675   4.304  73.640  0.00  0.00     0.218 C 
ATOM     11 BR1  LG1 d5015      23.869   9.473  70.607  0.00  0.00    -0.051 Br
ATOM     12  O2  LG1 d5015      24.246   4.494  72.856  0.00  0.00    -0.287 OA
ATOM     13  C10 LG1 d5015      22.557   2.852  74.442  0.00  0.00     0.025 C 
ENDROOT
BRANCH  13  14
ATOM     14  C11 LG1 d5015      21.718   1.924  75.139  0.00  0.00    -0.029 A 
ATOM     15  C14 LG1 d5015      21.382   2.071  76.466  0.00  0.00     0.061 A 
ATOM     16  S1  LG1 d5015      20.366   0.807  77.015  0.00  0.00    -0.113 SA
ATOM     17  C13 LG1 d5015      20.374   0.059  75.476  0.00  0.00     0.050 A 
ATOM     18  C12 LG1 d5015      21.133   0.758  74.565  0.00  0.00     0.019 A 
ENDBRANCH  13  14
TORSDOF 1
ENDMDL
MODEL 4
REMARK VINA RESULT:    -7.278      1.645      2.665
REMARK INTER + INTRA:          -7.688
REMARK INTER:                  -7.525
REMARK INTRA:                  -0.163
REMARK UNBOUND:                 0.015
REMARK  1 active torsions:
REMARK  status: ('A' for Active; 'I' for Inactive)
REMARK    1  A    between atoms: C10_13  and  C11_14 
ROOT
ATOM      1  C1  LG1 d5015      22.343   6.474  72.802  0.00  0.00     0.018 C 
ATOM      2  C2  LG1 d5015      21.086   5.940  73.383  0.00  0.00     0.193 C 
ATOM      3  C3  LG1 d5015      21.137   4.506  73.740  0.00  0.00     0.049 A 
ATOM      4  C4  LG1 d5015      19.987   3.855  74.191  0.00  0.00     0.037 A 
ATOM      5  C5  LG1 d5015      20.058   2.517  74.582  0.00  0.00     0.012 A 
ATOM      6  C6  LG1 d5015      21.274   1.834  74.534  0.00  0.00     0.022 A 
ATOM      7  C7  LG1 d5015      22.424   2.487  74.086  0.00  0.00     0.039 A 
ATOM      8  C8  LG1 d5015      22.354   3.817  73.673  0.00  0.00     0.083 A 
ATOM      9  O1  LG1 d5015      23.523   4.401  73.262  0.00  0.00    -0.346 OA
ATOM     10  C9  LG1 d5015      23.324   5.457  72.316  0.00  0.00     0.218 C 
ATOM     11 BR1  LG1 d5015      18.498   1.621  75.165  0.00  0.00    -0.051 Br
ATOM     12  O2  LG1 d5015      20.081   6.612  73.560  0.00  0.00    -0.287 OA
ATOM     13  C10 LG1 d5015      22.527   7.798  72.739  0.00  0.00     0.025 C 
ENDROOT
BRANCH  13  14
ATOM     14  C11 LG1 d5015      23.694   8.431  72.203  0.00  0.00    -0.029 A 
ATOM     15  C14 LG1 d5015      24.813   8.700  72.959  0.00  0.00     0.061 A 
ATOM     16  S1  LG1 d5015      26.042   9.460  72.040  0.00  0.00    -0.113 SA
ATOM     17  C13 LG1 d5015      25.078   9.431  70.626  0.00  0.00     0.050 A 
ATOM     18  C12 LG1 d5015      23.848   8.855  70.850  0.00  0.00     0.019 A 
ENDBRANCH  13  14
TORSDOF 1
ENDMDL
MODEL 5
REMARK VINA RESULT:    -6.288      1.907      2.882
REMARK INTER + INTRA:          -6.641
REMARK INTER:                  -6.656
REMARK INTRA:                   0.015
REMARK UNBOUND:                 0.015
REMARK  1 active torsions:
REMARK  status: ('A' for Active; 'I' for Inactive)
REMARK    1  A    between atoms: C10_13  and  C11_14 
ROOT
ATOM      1  C1  LG1 d5015      21.975   4.175  73.754  0.00  0.00     0.018 C 
ATOM      2  C2  LG1 d5015      20.774   3.333  73.979  0.00  0.00     0.193 C 
ATOM      3  C3  LG1 d5015      20.981   2.210  74.917  0.00  0.00     0.049 A 
ATOM      4  C4  LG1 d5015      19.963   1.277  75.129  0.00  0.00     0.037 A 
ATOM      5  C5  LG1 d5015      20.145   0.255  76.061  0.00  0.00     0.012 A 
ATOM      6  C6  LG1 d5015      21.334   0.169  76.788  0.00  0.00     0.022 A 
ATOM      7  C7  LG1 d5015      22.349   1.104  76.579  0.00  0.00     0.039 A 
ATOM      8  C8  LG1 d5015      22.181   2.115  75.632  0.00  0.00     0.083 A 
ATOM      9  O1  LG1 d5015      23.210   3.008  75.490  0.00  0.00    -0.346 OA
ATOM     10  C9  LG1 d5015      23.279   3.584  74.181  0.00  0.00     0.218 C 
ATOM     11 BR1  LG1 d5015      18.783  -1.030  76.330  0.00  0.00    -0.051 Br
ATOM     12  O2  LG1 d5015      19.694   3.533  73.441  0.00  0.00    -0.287 OA
ATOM     13  C10 LG1 d5015      21.835   5.382  73.191  0.00  0.00     0.025 C 
ENDROOT
BRANCH  13  14
ATOM     14  C11 LG1 d5015      22.915   6.284  72.925  0.00  0.00    -0.029 A 
ATOM     15  C14 LG1 d5015      23.015   7.525  73.512  0.00  0.00     0.061 A 
ATOM     16  S1  LG1 d5015      24.413   8.369  72.998  0.00  0.00    -0.113 SA
ATOM     17  C13 LG1 d5015      24.889   7.073  71.986  0.00  0.00     0.050 A 
ATOM     18  C12 LG1 d5015      24.002   6.022  72.040  0.00  0.00     0.019 A 
ENDBRANCH  13  14
TORSDOF 1
ENDMDL
