REMARK INTER + INTRA:          -6.205
REMARK INTER:                  -6.024
REMARK INTRA:                  -0.181
REMARK UNBOUND:                -0.202
REMARK  1 active torsions:
REMARK  status: ('A' for Active; 'I' for Inactive)
REMARK    1  A    between atoms: C1_1  and  N1_10 
ROOT
ATOM      1  C1  LG1 d5015      20.908   1.855  75.033  0.00  0.00     0.056 A 
ATOM      2  C2  LG1 d5015      20.049   2.475  74.127  0.00  0.00    -0.033 A 
ATOM      3  C3  LG1 d5015      20.304   3.781  73.707  0.00  0.00     0.028 A 
ATOM      4  C4  LG1 d5015      21.417   4.466  74.192  0.00  0.00     0.012 A 
ATOM      5  C5  LG1 d5015      22.276   3.845  75.101  0.00  0.00     0.028 A 
ATOM      6  C6  LG1 d5015      22.021   2.540  75.520  0.00  0.00    -0.033 A 
ATOM      7  C7  LG1 d5015      22.959   1.902  76.493  0.00  0.00     0.050 C 
ATOM      8 BR1  LG1 d5015      21.760   6.235  73.624  0.00  0.00    -0.051 Br
ATOM      9  C8  LG1 d5015      18.849   1.766  73.587  0.00  0.00     0.050 C 
ENDROOT
BRANCH   1  10
ATOM     10  N1  LG1 d5015      20.648   0.510  75.465  0.00  0.00    -0.265 N 
ATOM     11  C11 LG1 d5015      19.974   0.184  76.642  0.00  0.00     0.148 C 
ATOM     12  S2  LG1 d5015      19.115   1.154  77.704  0.00  0.00    -0.052 SA
ATOM     13  S1  LG1 d5015      20.030  -1.559  76.883  0.00  0.00    -0.090 SA
ATOM     14  C10 LG1 d5015      20.694  -1.887  75.251  0.00  0.00     0.185 C 
ATOM     15  C9  LG1 d5015      21.103  -0.559  74.681  0.00  0.00     0.239 C 
ATOM     16  O1  LG1 d5015      21.773  -0.499  73.654  0.00  0.00    -0.272 OA
ENDBRANCH   1  10
TORSDOF 1
ENDMDL
