REMARK INTER + INTRA:          -7.491
REMARK INTER:                  -7.372
REMARK INTRA:                  -0.119
REMARK UNBOUND:                -0.199
REMARK  1 active torsions:
REMARK  status: ('A' for Active; 'I' for Inactive)
REMARK    1  A    between atoms: C7_7  and  C4_4 
ROOT
ATOM      1  C1  LG1 d5015      41.569  34.898  30.997  0.00  0.00    -0.004 C 
ATOM      2  C2  LG1 d5015      40.621  33.697  31.096  0.00  0.00    -0.001 C 
ATOM      3  C3  LG1 d5015      41.259  32.472  31.850  0.00  0.00    -0.030 C 
ATOM      4  C4  LG1 d5015      40.021  31.515  31.831  0.00  0.00     0.063 C 
ATOM      5  C5  LG1 d5015      38.784  32.446  32.090  0.00  0.00     0.013 C 
ATOM      6  C6  LG1 d5015      39.261  33.915  31.803  0.00  0.00     0.006 C 
ATOM      7  C9  LG1 d5015      41.655  32.792  33.335  0.00  0.00     0.016 C 
ATOM      8  C10 LG1 d5015      42.467  32.029  30.995  0.00  0.00     0.011 C 
ATOM      9  C11 LG1 d5015      43.484  33.190  30.817  0.00  0.00     0.007 C 
ATOM     10  C12 LG1 d5015      42.833  34.451  30.191  0.00  0.00     0.002 C 
ATOM     11  C13 LG1 d5015      43.881  35.610  30.005  0.00  0.00    -0.016 C 
ATOM     12  C14 LG1 d5015      43.141  36.862  29.382  0.00  0.00    -0.068 C 
ATOM     13  C15 LG1 d5015      43.609  37.556  28.359  0.00  0.00     0.053 C 
ATOM     14  C16 LG1 d5015      44.924  37.293  27.796  0.00  0.00     0.149 C 
ATOM     15  C17 LG1 d5015      45.841  36.260  28.445  0.00  0.00     0.084 C 
ATOM     16  C18 LG1 d5015      44.988  35.112  29.037  0.00  0.00     0.022 C 
ATOM     17  O2  LG1 d5015      45.339  37.956  26.829  0.00  0.00    -0.293 OA
ATOM     18  C19 LG1 d5015      41.798  37.262  29.982  0.00  0.00     0.035 C 
ATOM     19  C20 LG1 d5015      40.879  36.049  30.221  0.00  0.00     0.010 C 
ATOM     20  C21 LG1 d5015      44.498  36.094  31.373  0.00  0.00     0.020 C 
ENDROOT
BRANCH   4  21
ATOM     21  C7  LG1 d5015      40.128  30.298  32.765  0.00  0.00     0.128 C 
ATOM     22  O1  LG1 d5015      39.629  30.331  33.869  0.00  0.00    -0.298 OA
ATOM     23  C8  LG1 d5015      40.842  29.076  32.299  0.00  0.00     0.091 C 
ENDBRANCH   4  21
TORSDOF 1
ENDMDL
