REMARK INTER + INTRA:          -6.944
REMARK INTER:                  -6.740
REMARK INTRA:                  -0.204
REMARK UNBOUND:                -0.201
REMARK  1 active torsions:
REMARK  status: ('A' for Active; 'I' for Inactive)
REMARK    1  A    between atoms: C7_7  and  C4_4 
ROOT
ATOM      1  C1  LG1 d5015      41.725  36.647  30.425  0.00  0.00    -0.004 C 
ATOM      2  C2  LG1 d5015      40.496  35.741  30.557  0.00  0.00    -0.001 C 
ATOM      3  C3  LG1 d5015      40.868  34.216  30.683  0.00  0.00    -0.030 C 
ATOM      4  C4  LG1 d5015      39.426  33.640  30.880  0.00  0.00     0.063 C 
ATOM      5  C5  LG1 d5015      38.697  34.675  31.806  0.00  0.00     0.013 C 
ATOM      6  C6  LG1 d5015      39.541  36.000  31.747  0.00  0.00     0.006 C 
ATOM      7  C9  LG1 d5015      41.743  33.891  31.945  0.00  0.00     0.016 C 
ATOM      8  C10 LG1 d5015      41.570  33.841  29.359  0.00  0.00     0.011 C 
ATOM      9  C11 LG1 d5015      42.827  34.723  29.121  0.00  0.00     0.007 C 
ATOM     10  C12 LG1 d5015      42.490  36.237  29.124  0.00  0.00     0.002 C 
ATOM     11  C13 LG1 d5015      43.771  37.113  28.865  0.00  0.00    -0.016 C 
ATOM     12  C14 LG1 d5015      43.354  38.640  28.901  0.00  0.00    -0.068 C 
ATOM     13  C15 LG1 d5015      43.724  39.523  27.992  0.00  0.00     0.053 C 
ATOM     14  C16 LG1 d5015      44.664  39.182  26.935  0.00  0.00     0.149 C 
ATOM     15  C17 LG1 d5015      45.323  37.806  26.913  0.00  0.00     0.084 C 
ATOM     16  C18 LG1 d5015      44.333  36.750  27.465  0.00  0.00     0.022 C 
ATOM     17  O2  LG1 d5015      44.993  40.030  26.087  0.00  0.00    -0.293 OA
ATOM     18  C19 LG1 d5015      42.445  39.098  30.037  0.00  0.00     0.035 C 
ATOM     19  C20 LG1 d5015      41.276  38.123  30.280  0.00  0.00     0.010 C 
ATOM     20  C21 LG1 d5015      44.868  36.927  29.983  0.00  0.00     0.020 C 
ENDROOT
BRANCH   4  21
ATOM     21  C7  LG1 d5015      39.373  32.181  31.364  0.00  0.00     0.128 C 
ATOM     22  O1  LG1 d5015      39.767  31.286  30.647  0.00  0.00    -0.298 OA
ATOM     23  C8  LG1 d5015      38.842  31.878  32.722  0.00  0.00     0.091 C 
ENDBRANCH   4  21
TORSDOF 1
ENDMDL
