REMARK INTER + INTRA:          -7.468
REMARK INTER:                  -7.338
REMARK INTRA:                  -0.131
REMARK UNBOUND:                -0.201
REMARK  1 active torsions:
REMARK  status: ('A' for Active; 'I' for Inactive)
REMARK    1  A    between atoms: C7_7  and  C4_4 
ROOT
ATOM      1  C1  LG1 d5015      41.539  34.908  31.004  0.00  0.00    -0.004 C 
ATOM      2  C2  LG1 d5015      40.593  33.706  31.098  0.00  0.00    -0.001 C 
ATOM      3  C3  LG1 d5015      41.230  32.481  31.854  0.00  0.00    -0.030 C 
ATOM      4  C4  LG1 d5015      39.993  31.522  31.829  0.00  0.00     0.063 C 
ATOM      5  C5  LG1 d5015      38.755  32.451  32.086  0.00  0.00     0.013 C 
ATOM      6  C6  LG1 d5015      39.231  33.921  31.800  0.00  0.00     0.006 C 
ATOM      7  C9  LG1 d5015      41.621  32.800  33.340  0.00  0.00     0.016 C 
ATOM      8  C10 LG1 d5015      42.441  32.041  31.002  0.00  0.00     0.011 C 
ATOM      9  C11 LG1 d5015      43.458  33.203  30.829  0.00  0.00     0.007 C 
ATOM     10  C12 LG1 d5015      42.807  34.463  30.202  0.00  0.00     0.002 C 
ATOM     11  C13 LG1 d5015      43.854  35.624  30.019  0.00  0.00    -0.016 C 
ATOM     12  C14 LG1 d5015      43.115  36.876  29.395  0.00  0.00    -0.068 C 
ATOM     13  C15 LG1 d5015      43.584  37.571  28.375  0.00  0.00     0.053 C 
ATOM     14  C16 LG1 d5015      44.902  37.310  27.815  0.00  0.00     0.149 C 
ATOM     15  C17 LG1 d5015      45.818  36.279  28.466  0.00  0.00     0.084 C 
ATOM     16  C18 LG1 d5015      44.965  35.128  29.055  0.00  0.00     0.022 C 
ATOM     17  O2  LG1 d5015      45.319  37.974  26.850  0.00  0.00    -0.293 OA
ATOM     18  C19 LG1 d5015      41.769  37.273  29.991  0.00  0.00     0.035 C 
ATOM     19  C20 LG1 d5015      40.851  36.058  30.226  0.00  0.00     0.010 C 
ATOM     20  C21 LG1 d5015      44.466  36.108  31.390  0.00  0.00     0.020 C 
ENDROOT
BRANCH   4  21
ATOM     21  C7  LG1 d5015      40.099  30.305  32.762  0.00  0.00     0.128 C 
ATOM     22  O1  LG1 d5015      39.575  30.327  33.855  0.00  0.00    -0.298 OA
ATOM     23  C8  LG1 d5015      40.844  29.096  32.310  0.00  0.00     0.091 C 
ENDBRANCH   4  21
TORSDOF 1
ENDMDL
