REMARK INTER + INTRA:          -8.967
REMARK INTER:                  -8.958
REMARK INTRA:                  -0.009
REMARK UNBOUND:                -0.201
REMARK  1 active torsions:
REMARK  status: ('A' for Active; 'I' for Inactive)
REMARK    1  A    between atoms: C7_7  and  C4_4 
ROOT
ATOM      1  C1  LG1 d5015      41.425  35.322  30.215  0.00  0.00    -0.004 C 
ATOM      2  C2  LG1 d5015      42.250  36.613  30.267  0.00  0.00    -0.001 C 
ATOM      3  C3  LG1 d5015      43.767  36.387  29.910  0.00  0.00    -0.030 C 
ATOM      4  C4  LG1 d5015      44.247  37.875  29.980  0.00  0.00     0.063 C 
ATOM      5  C5  LG1 d5015      43.079  38.709  29.346  0.00  0.00     0.013 C 
ATOM      6  C6  LG1 d5015      41.811  37.780  29.350  0.00  0.00     0.006 C 
ATOM      7  C9  LG1 d5015      43.989  35.828  28.460  0.00  0.00     0.016 C 
ATOM      8  C10 LG1 d5015      44.323  35.447  31.002  0.00  0.00     0.011 C 
ATOM      9  C11 LG1 d5015      43.536  34.107  31.044  0.00  0.00     0.007 C 
ATOM     10  C12 LG1 d5015      42.017  34.327  31.267  0.00  0.00     0.002 C 
ATOM     11  C13 LG1 d5015      41.239  32.961  31.323  0.00  0.00    -0.016 C 
ATOM     12  C14 LG1 d5015      39.700  33.266  31.533  0.00  0.00    -0.068 C 
ATOM     13  C15 LG1 d5015      38.944  32.646  32.421  0.00  0.00     0.053 C 
ATOM     14  C16 LG1 d5015      39.448  31.529  33.205  0.00  0.00     0.149 C 
ATOM     15  C17 LG1 d5015      40.848  30.981  32.944  0.00  0.00     0.084 C 
ATOM     16  C18 LG1 d5015      41.785  32.140  32.521  0.00  0.00     0.022 C 
ATOM     17  O2  LG1 d5015      38.719  30.965  34.041  0.00  0.00    -0.293 OA
ATOM     18  C19 LG1 d5015      39.072  34.362  30.678  0.00  0.00     0.035 C 
ATOM     19  C20 LG1 d5015      39.955  35.622  30.602  0.00  0.00     0.010 C 
ATOM     20  C21 LG1 d5015      41.349  32.145  29.978  0.00  0.00     0.020 C 
ENDROOT
BRANCH   4  21
ATOM     21  C7  LG1 d5015      45.637  38.136  29.376  0.00  0.00     0.128 C 
ATOM     22  O1  LG1 d5015      45.758  38.325  28.185  0.00  0.00    -0.298 OA
ATOM     23  C8  LG1 d5015      46.831  38.161  30.266  0.00  0.00     0.091 C 
ENDBRANCH   4  21
TORSDOF 1
ENDMDL
