REMARK INTER + INTRA:          -8.975
REMARK INTER:                  -8.971
REMARK INTRA:                  -0.004
REMARK UNBOUND:                -0.201
REMARK  1 active torsions:
REMARK  status: ('A' for Active; 'I' for Inactive)
REMARK    1  A    between atoms: C7_7  and  C4_4 
ROOT
ATOM      1  C1  LG1 d5015      41.430  35.305  30.208  0.00  0.00    -0.004 C 
ATOM      2  C2  LG1 d5015      42.252  36.597  30.259  0.00  0.00    -0.001 C 
ATOM      3  C3  LG1 d5015      43.775  36.369  29.934  0.00  0.00    -0.030 C 
ATOM      4  C4  LG1 d5015      44.252  37.858  29.993  0.00  0.00     0.063 C 
ATOM      5  C5  LG1 d5015      43.096  38.682  29.325  0.00  0.00     0.013 C 
ATOM      6  C6  LG1 d5015      41.830  37.751  29.317  0.00  0.00     0.006 C 
ATOM      7  C9  LG1 d5015      44.026  35.791  28.496  0.00  0.00     0.016 C 
ATOM      8  C10 LG1 d5015      44.312  35.444  31.049  0.00  0.00     0.011 C 
ATOM      9  C11 LG1 d5015      43.526  34.104  31.094  0.00  0.00     0.007 C 
ATOM     10  C12 LG1 d5015      42.003  34.325  31.284  0.00  0.00     0.002 C 
ATOM     11  C13 LG1 d5015      41.225  32.958  31.344  0.00  0.00    -0.016 C 
ATOM     12  C14 LG1 d5015      39.682  33.264  31.520  0.00  0.00    -0.068 C 
ATOM     13  C15 LG1 d5015      38.910  32.655  32.402  0.00  0.00     0.053 C 
ATOM     14  C16 LG1 d5015      39.400  31.549  33.210  0.00  0.00     0.149 C 
ATOM     15  C17 LG1 d5015      40.805  31.000  32.983  0.00  0.00     0.084 C 
ATOM     16  C18 LG1 d5015      41.749  32.154  32.563  0.00  0.00     0.022 C 
ATOM     17  O2  LG1 d5015      38.655  30.996  34.039  0.00  0.00    -0.293 OA
ATOM     18  C19 LG1 d5015      39.070  34.347  30.638  0.00  0.00     0.035 C 
ATOM     19  C20 LG1 d5015      39.952  35.608  30.563  0.00  0.00     0.010 C 
ATOM     20  C21 LG1 d5015      41.363  32.125  30.012  0.00  0.00     0.020 C 
ENDROOT
BRANCH   4  21
ATOM     21  C7  LG1 d5015      45.653  38.113  29.412  0.00  0.00     0.128 C 
ATOM     22  O1  LG1 d5015      45.797  38.283  28.221  0.00  0.00    -0.298 OA
ATOM     23  C8  LG1 d5015      46.829  38.156  30.326  0.00  0.00     0.091 C 
ENDBRANCH   4  21
TORSDOF 1
ENDMDL
