REMARK INTER + INTRA:          -6.755
REMARK INTER:                  -6.554
REMARK INTRA:                  -0.201
REMARK UNBOUND:                -0.201
REMARK  1 active torsions:
REMARK  status: ('A' for Active; 'I' for Inactive)
REMARK    1  A    between atoms: C7_7  and  C4_4 
ROOT
ATOM      1  C1  LG1 d5015      42.672  33.837  31.307  0.00  0.00    -0.004 C 
ATOM      2  C2  LG1 d5015      43.437  34.814  30.408  0.00  0.00    -0.001 C 
ATOM      3  C3  LG1 d5015      42.538  35.991  29.875  0.00  0.00    -0.030 C 
ATOM      4  C4  LG1 d5015      43.637  36.793  29.102  0.00  0.00     0.063 C 
ATOM      5  C5  LG1 d5015      44.915  36.708  30.009  0.00  0.00     0.013 C 
ATOM      6  C6  LG1 d5015      44.674  35.522  31.012  0.00  0.00     0.006 C 
ATOM      7  C9  LG1 d5015      41.938  36.883  31.018  0.00  0.00     0.016 C 
ATOM      8  C10 LG1 d5015      41.448  35.329  29.003  0.00  0.00     0.011 C 
ATOM      9  C11 LG1 d5015      40.622  34.299  29.822  0.00  0.00     0.007 C 
ATOM     10  C12 LG1 d5015      41.517  33.205  30.461  0.00  0.00     0.002 C 
ATOM     11  C13 LG1 d5015      40.663  32.162  31.273  0.00  0.00    -0.016 C 
ATOM     12  C14 LG1 d5015      41.643  31.093  31.907  0.00  0.00    -0.068 C 
ATOM     13  C15 LG1 d5015      41.443  29.789  31.849  0.00  0.00     0.053 C 
ATOM     14  C16 LG1 d5015      40.220  29.229  31.295  0.00  0.00     0.149 C 
ATOM     15  C17 LG1 d5015      39.088  30.152  30.851  0.00  0.00     0.084 C 
ATOM     16  C18 LG1 d5015      39.684  31.466  30.290  0.00  0.00     0.022 C 
ATOM     17  O2  LG1 d5015      40.057  27.997  31.245  0.00  0.00    -0.293 OA
ATOM     18  C19 LG1 d5015      42.904  31.608  32.593  0.00  0.00     0.035 C 
ATOM     19  C20 LG1 d5015      43.616  32.697  31.768  0.00  0.00     0.010 C 
ATOM     20  C21 LG1 d5015      39.887  32.821  32.476  0.00  0.00     0.020 C 
ENDROOT
BRANCH   4  21
ATOM     21  C7  LG1 d5015      43.227  38.216  28.686  0.00  0.00     0.128 C 
ATOM     22  O1  LG1 d5015      42.398  38.381  27.816  0.00  0.00    -0.298 OA
ATOM     23  C8  LG1 d5015      43.849  39.387  29.363  0.00  0.00     0.091 C 
ENDBRANCH   4  21
TORSDOF 1
ENDMDL
