REMARK INTER + INTRA:          -7.473
REMARK INTER:                  -7.343
REMARK INTRA:                  -0.131
REMARK UNBOUND:                -0.197
REMARK  1 active torsions:
REMARK  status: ('A' for Active; 'I' for Inactive)
REMARK    1  A    between atoms: C7_7  and  C4_4 
ROOT
ATOM      1  C1  LG1 d5015      41.549  34.894  31.021  0.00  0.00    -0.004 C 
ATOM      2  C2  LG1 d5015      40.601  33.693  31.110  0.00  0.00    -0.001 C 
ATOM      3  C3  LG1 d5015      41.239  32.460  31.852  0.00  0.00    -0.030 C 
ATOM      4  C4  LG1 d5015      40.000  31.504  31.825  0.00  0.00     0.063 C 
ATOM      5  C5  LG1 d5015      38.765  32.432  32.095  0.00  0.00     0.013 C 
ATOM      6  C6  LG1 d5015      39.242  33.904  31.821  0.00  0.00     0.006 C 
ATOM      7  C9  LG1 d5015      41.638  32.766  33.339  0.00  0.00     0.016 C 
ATOM      8  C10 LG1 d5015      42.445  32.025  30.990  0.00  0.00     0.011 C 
ATOM      9  C11 LG1 d5015      43.463  33.187  30.822  0.00  0.00     0.007 C 
ATOM     10  C12 LG1 d5015      42.812  34.454  30.209  0.00  0.00     0.002 C 
ATOM     11  C13 LG1 d5015      43.860  35.614  30.032  0.00  0.00    -0.016 C 
ATOM     12  C14 LG1 d5015      43.120  36.873  29.422  0.00  0.00    -0.068 C 
ATOM     13  C15 LG1 d5015      43.586  37.576  28.406  0.00  0.00     0.053 C 
ATOM     14  C16 LG1 d5015      44.900  37.318  27.838  0.00  0.00     0.149 C 
ATOM     15  C17 LG1 d5015      45.818  36.279  28.475  0.00  0.00     0.084 C 
ATOM     16  C18 LG1 d5015      44.965  35.125  29.058  0.00  0.00     0.022 C 
ATOM     17  O2  LG1 d5015      45.314  37.990  26.877  0.00  0.00    -0.293 OA
ATOM     18  C19 LG1 d5015      41.778  37.268  30.029  0.00  0.00     0.035 C 
ATOM     19  C20 LG1 d5015      40.859  36.052  30.257  0.00  0.00     0.010 C 
ATOM     20  C21 LG1 d5015      44.480  36.085  31.404  0.00  0.00     0.020 C 
ENDROOT
BRANCH   4  21
ATOM     21  C7  LG1 d5015      40.109  30.278  32.747  0.00  0.00     0.128 C 
ATOM     22  O1  LG1 d5015      39.589  30.291  33.842  0.00  0.00    -0.298 OA
ATOM     23  C8  LG1 d5015      40.849  29.072  32.280  0.00  0.00     0.091 C 
ENDBRANCH   4  21
TORSDOF 1
ENDMDL
