REMARK INTER + INTRA:          -7.778
REMARK INTER:                  -7.948
REMARK INTRA:                   0.170
REMARK UNBOUND:                -0.195
REMARK  1 active torsions:
REMARK  status: ('A' for Active; 'I' for Inactive)
REMARK    1  A    between atoms: C7_7  and  C4_4 
ROOT
ATOM      1  C1  LG1 d5015      43.209  34.244  30.665  0.00  0.00    -0.004 C 
ATOM      2  C2  LG1 d5015      42.329  33.519  31.689  0.00  0.00    -0.001 C 
ATOM      3  C3  LG1 d5015      40.885  33.207  31.147  0.00  0.00    -0.030 C 
ATOM      4  C4  LG1 d5015      40.336  32.421  32.384  0.00  0.00     0.063 C 
ATOM      5  C5  LG1 d5015      41.541  31.544  32.875  0.00  0.00     0.013 C 
ATOM      6  C6  LG1 d5015      42.835  32.160  32.232  0.00  0.00     0.006 C 
ATOM      7  C9  LG1 d5015      40.881  32.275  29.885  0.00  0.00     0.016 C 
ATOM      8  C10 LG1 d5015      40.229  34.579  30.875  0.00  0.00     0.011 C 
ATOM      9  C11 LG1 d5015      41.061  35.407  29.856  0.00  0.00     0.007 C 
ATOM     10  C12 LG1 d5015      42.526  35.609  30.322  0.00  0.00     0.002 C 
ATOM     11  C13 LG1 d5015      43.349  36.462  29.286  0.00  0.00    -0.016 C 
ATOM     12  C14 LG1 d5015      44.831  36.610  29.820  0.00  0.00    -0.068 C 
ATOM     13  C15 LG1 d5015      45.489  37.755  29.851  0.00  0.00     0.053 C 
ATOM     14  C16 LG1 d5015      44.934  38.969  29.272  0.00  0.00     0.149 C 
ATOM     15  C17 LG1 d5015      43.606  38.922  28.523  0.00  0.00     0.084 C 
ATOM     16  C18 LG1 d5015      42.684  37.860  29.172  0.00  0.00     0.022 C 
ATOM     17  O2  LG1 d5015      45.570  40.037  29.320  0.00  0.00    -0.293 OA
ATOM     18  C19 LG1 d5015      45.519  35.359  30.356  0.00  0.00     0.035 C 
ATOM     19  C20 LG1 d5015      44.600  34.537  31.281  0.00  0.00     0.010 C 
ATOM     20  C21 LG1 d5015      43.452  35.766  27.875  0.00  0.00     0.020 C 
ENDROOT
BRANCH   4  21
ATOM     21  C7  LG1 d5015      39.028  31.651  32.133  0.00  0.00     0.128 C 
ATOM     22  O1  LG1 d5015      37.968  32.116  32.494  0.00  0.00    -0.298 OA
ATOM     23  C8  LG1 d5015      39.074  30.336  31.438  0.00  0.00     0.091 C 
ENDBRANCH   4  21
TORSDOF 1
ENDMDL
