REMARK INTER + INTRA:          -6.938
REMARK INTER:                  -6.736
REMARK INTRA:                  -0.202
REMARK UNBOUND:                -0.199
REMARK  1 active torsions:
REMARK  status: ('A' for Active; 'I' for Inactive)
REMARK    1  A    between atoms: C7_7  and  C4_4 
ROOT
ATOM      1  C1  LG1 d5015      41.719  36.647  30.425  0.00  0.00    -0.004 C 
ATOM      2  C2  LG1 d5015      40.483  35.750  30.564  0.00  0.00    -0.001 C 
ATOM      3  C3  LG1 d5015      40.844  34.224  30.700  0.00  0.00    -0.030 C 
ATOM      4  C4  LG1 d5015      39.399  33.659  30.901  0.00  0.00     0.063 C 
ATOM      5  C5  LG1 d5015      38.678  34.706  31.821  0.00  0.00     0.013 C 
ATOM      6  C6  LG1 d5015      39.531  36.025  31.753  0.00  0.00     0.006 C 
ATOM      7  C9  LG1 d5015      41.718  33.901  31.963  0.00  0.00     0.016 C 
ATOM      8  C10 LG1 d5015      41.543  33.835  29.378  0.00  0.00     0.011 C 
ATOM      9  C11 LG1 d5015      42.806  34.706  29.133  0.00  0.00     0.007 C 
ATOM     10  C12 LG1 d5015      42.480  36.222  29.126  0.00  0.00     0.002 C 
ATOM     11  C13 LG1 d5015      43.767  37.088  28.861  0.00  0.00    -0.016 C 
ATOM     12  C14 LG1 d5015      43.361  38.617  28.887  0.00  0.00    -0.068 C 
ATOM     13  C15 LG1 d5015      43.737  39.492  27.972  0.00  0.00     0.053 C 
ATOM     14  C16 LG1 d5015      44.674  39.137  26.917  0.00  0.00     0.149 C 
ATOM     15  C17 LG1 d5015      45.323  37.756  26.903  0.00  0.00     0.084 C 
ATOM     16  C18 LG1 d5015      44.325  36.711  27.463  0.00  0.00     0.022 C 
ATOM     17  O2  LG1 d5015      45.008  39.977  26.063  0.00  0.00    -0.293 OA
ATOM     18  C19 LG1 d5015      42.456  39.089  30.020  0.00  0.00     0.035 C 
ATOM     19  C20 LG1 d5015      41.280  38.125  30.271  0.00  0.00     0.010 C 
ATOM     20  C21 LG1 d5015      44.864  36.901  29.979  0.00  0.00     0.020 C 
ENDROOT
BRANCH   4  21
ATOM     21  C7  LG1 d5015      39.335  32.204  31.395  0.00  0.00     0.128 C 
ATOM     22  O1  LG1 d5015      39.711  31.301  30.679  0.00  0.00    -0.298 OA
ATOM     23  C8  LG1 d5015      38.817  31.915  32.762  0.00  0.00     0.091 C 
ENDBRANCH   4  21
TORSDOF 1
ENDMDL
