REMARK INTER + INTRA:          -6.951
REMARK INTER:                  -6.747
REMARK INTRA:                  -0.204
REMARK UNBOUND:                -0.195
REMARK  1 active torsions:
REMARK  status: ('A' for Active; 'I' for Inactive)
REMARK    1  A    between atoms: C7_7  and  C4_4 
ROOT
ATOM      1  C1  LG1 d5015      41.721  36.634  30.427  0.00  0.00    -0.004 C 
ATOM      2  C2  LG1 d5015      40.493  35.729  30.565  0.00  0.00    -0.001 C 
ATOM      3  C3  LG1 d5015      40.865  34.205  30.700  0.00  0.00    -0.030 C 
ATOM      4  C4  LG1 d5015      39.423  33.630  30.900  0.00  0.00     0.063 C 
ATOM      5  C5  LG1 d5015      38.695  34.671  31.821  0.00  0.00     0.013 C 
ATOM      6  C6  LG1 d5015      39.538  35.995  31.754  0.00  0.00     0.006 C 
ATOM      7  C9  LG1 d5015      41.741  33.887  31.963  0.00  0.00     0.016 C 
ATOM      8  C10 LG1 d5015      41.566  33.822  29.378  0.00  0.00     0.011 C 
ATOM      9  C11 LG1 d5015      42.823  34.703  29.133  0.00  0.00     0.007 C 
ATOM     10  C12 LG1 d5015      42.486  36.216  29.127  0.00  0.00     0.002 C 
ATOM     11  C13 LG1 d5015      43.767  37.091  28.863  0.00  0.00    -0.016 C 
ATOM     12  C14 LG1 d5015      43.349  38.618  28.890  0.00  0.00    -0.068 C 
ATOM     13  C15 LG1 d5015      43.719  39.496  27.975  0.00  0.00     0.053 C 
ATOM     14  C16 LG1 d5015      44.658  39.149  26.920  0.00  0.00     0.149 C 
ATOM     15  C17 LG1 d5015      45.317  37.773  26.905  0.00  0.00     0.084 C 
ATOM     16  C18 LG1 d5015      44.328  36.720  27.464  0.00  0.00     0.022 C 
ATOM     17  O2  LG1 d5015      44.986  39.991  26.066  0.00  0.00    -0.293 OA
ATOM     18  C19 LG1 d5015      42.440  39.083  30.023  0.00  0.00     0.035 C 
ATOM     19  C20 LG1 d5015      41.272  38.110  30.273  0.00  0.00     0.010 C 
ATOM     20  C21 LG1 d5015      44.864  36.912  29.981  0.00  0.00     0.020 C 
ENDROOT
BRANCH   4  21
ATOM     21  C7  LG1 d5015      39.370  32.174  31.393  0.00  0.00     0.128 C 
ATOM     22  O1  LG1 d5015      39.743  31.272  30.674  0.00  0.00    -0.298 OA
ATOM     23  C8  LG1 d5015      38.866  31.881  32.764  0.00  0.00     0.091 C 
ENDBRANCH   4  21
TORSDOF 1
ENDMDL
