MODEL 1
REMARK VINA RESULT:    -8.285      0.000      0.000
REMARK INTER + INTRA:          -8.969
REMARK INTER:                  -8.974
REMARK INTRA:                   0.006
REMARK UNBOUND:                -0.199
REMARK  1 active torsions:
REMARK  status: ('A' for Active; 'I' for Inactive)
REMARK    1  A    between atoms: C7_7  and  C4_4 
ROOT
ATOM      1  C1  LG1 d5015      41.429  35.310  30.211  0.00  0.00    -0.004 C 
ATOM      2  C2  LG1 d5015      42.251  36.602  30.268  0.00  0.00    -0.001 C 
ATOM      3  C3  LG1 d5015      43.769  36.381  29.917  0.00  0.00    -0.030 C 
ATOM      4  C4  LG1 d5015      44.246  37.870  29.991  0.00  0.00     0.063 C 
ATOM      5  C5  LG1 d5015      43.079  38.702  29.353  0.00  0.00     0.013 C 
ATOM      6  C6  LG1 d5015      41.813  37.769  29.350  0.00  0.00     0.006 C 
ATOM      7  C9  LG1 d5015      43.999  35.824  28.468  0.00  0.00     0.016 C 
ATOM      8  C10 LG1 d5015      44.324  35.440  31.010  0.00  0.00     0.011 C 
ATOM      9  C11 LG1 d5015      43.539  34.099  31.048  0.00  0.00     0.007 C 
ATOM     10  C12 LG1 d5015      42.019  34.315  31.264  0.00  0.00     0.002 C 
ATOM     11  C13 LG1 d5015      41.243  32.947  31.316  0.00  0.00    -0.016 C 
ATOM     12  C14 LG1 d5015      39.703  33.248  31.519  0.00  0.00    -0.068 C 
ATOM     13  C15 LG1 d5015      38.945  32.626  32.404  0.00  0.00     0.053 C 
ATOM     14  C16 LG1 d5015      39.448  31.509  33.189  0.00  0.00     0.149 C 
ATOM     15  C17 LG1 d5015      40.850  30.965  32.933  0.00  0.00     0.084 C 
ATOM     16  C18 LG1 d5015      41.786  32.126  32.516  0.00  0.00     0.022 C 
ATOM     17  O2  LG1 d5015      38.716  30.943  34.021  0.00  0.00    -0.293 OA
ATOM     18  C19 LG1 d5015      39.076  34.344  30.663  0.00  0.00     0.035 C 
ATOM     19  C20 LG1 d5015      39.957  35.607  30.592  0.00  0.00     0.010 C 
ATOM     20  C21 LG1 d5015      41.362  32.133  29.970  0.00  0.00     0.020 C 
ENDROOT
BRANCH   4  21
ATOM     21  C7  LG1 d5015      45.638  38.134  29.393  0.00  0.00     0.128 C 
ATOM     22  O1  LG1 d5015      45.765  38.309  28.200  0.00  0.00    -0.298 OA
ATOM     23  C8  LG1 d5015      46.825  38.181  30.291  0.00  0.00     0.091 C 
ENDBRANCH   4  21
TORSDOF 1
ENDMDL
MODEL 2
REMARK VINA RESULT:    -7.181      1.167      7.208
REMARK INTER + INTRA:          -7.800
REMARK INTER:                  -8.009
REMARK INTRA:                   0.208
REMARK UNBOUND:                -0.199
REMARK  1 active torsions:
REMARK  status: ('A' for Active; 'I' for Inactive)
REMARK    1  A    between atoms: C7_7  and  C4_4 
ROOT
ATOM      1  C1  LG1 d5015      43.228  34.236  30.603  0.00  0.00    -0.004 C 
ATOM      2  C2  LG1 d5015      42.353  33.501  31.624  0.00  0.00    -0.001 C 
ATOM      3  C3  LG1 d5015      40.901  33.209  31.090  0.00  0.00    -0.030 C 
ATOM      4  C4  LG1 d5015      40.357  32.407  32.319  0.00  0.00     0.063 C 
ATOM      5  C5  LG1 d5015      41.560  31.512  32.784  0.00  0.00     0.013 C 
ATOM      6  C6  LG1 d5015      42.853  32.129  32.138  0.00  0.00     0.006 C 
ATOM      7  C9  LG1 d5015      40.878  32.298  29.812  0.00  0.00     0.016 C 
ATOM      8  C10 LG1 d5015      40.254  34.591  30.847  0.00  0.00     0.011 C 
ATOM      9  C11 LG1 d5015      41.082  35.429  29.834  0.00  0.00     0.007 C 
ATOM     10  C12 LG1 d5015      42.553  35.612  30.290  0.00  0.00     0.002 C 
ATOM     11  C13 LG1 d5015      43.373  36.476  29.261  0.00  0.00    -0.016 C 
ATOM     12  C14 LG1 d5015      44.861  36.604  29.783  0.00  0.00    -0.068 C 
ATOM     13  C15 LG1 d5015      45.528  37.743  29.827  0.00  0.00     0.053 C 
ATOM     14  C16 LG1 d5015      44.977  38.971  29.274  0.00  0.00     0.149 C 
ATOM     15  C17 LG1 d5015      43.642  38.946  28.536  0.00  0.00     0.084 C 
ATOM     16  C18 LG1 d5015      42.718  37.881  29.177  0.00  0.00     0.022 C 
ATOM     17  O2  LG1 d5015      45.622  40.033  29.334  0.00  0.00    -0.293 OA
ATOM     18  C19 LG1 d5015      45.544  35.338  30.291  0.00  0.00     0.035 C 
ATOM     19  C20 LG1 d5015      44.628  34.508  31.211  0.00  0.00     0.010 C 
ATOM     20  C21 LG1 d5015      43.458  35.803  27.838  0.00  0.00     0.020 C 
ENDROOT
BRANCH   4  21
ATOM     21  C7  LG1 d5015      39.042  31.651  32.068  0.00  0.00     0.128 C 
ATOM     22  O1  LG1 d5015      37.993  32.102  32.477  0.00  0.00    -0.298 OA
ATOM     23  C8  LG1 d5015      39.065  30.368  31.311  0.00  0.00     0.091 C 
ENDBRANCH   4  21
TORSDOF 1
ENDMDL
MODEL 3
REMARK VINA RESULT:    -6.889      1.276      6.921
REMARK INTER + INTRA:          -7.491
REMARK INTER:                  -7.372
REMARK INTRA:                  -0.119
REMARK UNBOUND:                -0.199
REMARK  1 active torsions:
REMARK  status: ('A' for Active; 'I' for Inactive)
REMARK    1  A    between atoms: C7_7  and  C4_4 
ROOT
ATOM      1  C1  LG1 d5015      41.569  34.898  30.997  0.00  0.00    -0.004 C 
ATOM      2  C2  LG1 d5015      40.621  33.697  31.096  0.00  0.00    -0.001 C 
ATOM      3  C3  LG1 d5015      41.259  32.472  31.850  0.00  0.00    -0.030 C 
ATOM      4  C4  LG1 d5015      40.021  31.515  31.831  0.00  0.00     0.063 C 
ATOM      5  C5  LG1 d5015      38.784  32.446  32.090  0.00  0.00     0.013 C 
ATOM      6  C6  LG1 d5015      39.261  33.915  31.803  0.00  0.00     0.006 C 
ATOM      7  C9  LG1 d5015      41.655  32.792  33.335  0.00  0.00     0.016 C 
ATOM      8  C10 LG1 d5015      42.467  32.029  30.995  0.00  0.00     0.011 C 
ATOM      9  C11 LG1 d5015      43.484  33.190  30.817  0.00  0.00     0.007 C 
ATOM     10  C12 LG1 d5015      42.833  34.451  30.191  0.00  0.00     0.002 C 
ATOM     11  C13 LG1 d5015      43.881  35.610  30.005  0.00  0.00    -0.016 C 
ATOM     12  C14 LG1 d5015      43.141  36.862  29.382  0.00  0.00    -0.068 C 
ATOM     13  C15 LG1 d5015      43.609  37.556  28.359  0.00  0.00     0.053 C 
ATOM     14  C16 LG1 d5015      44.924  37.293  27.796  0.00  0.00     0.149 C 
ATOM     15  C17 LG1 d5015      45.841  36.260  28.445  0.00  0.00     0.084 C 
ATOM     16  C18 LG1 d5015      44.988  35.112  29.037  0.00  0.00     0.022 C 
ATOM     17  O2  LG1 d5015      45.339  37.956  26.829  0.00  0.00    -0.293 OA
ATOM     18  C19 LG1 d5015      41.798  37.262  29.982  0.00  0.00     0.035 C 
ATOM     19  C20 LG1 d5015      40.879  36.049  30.221  0.00  0.00     0.010 C 
ATOM     20  C21 LG1 d5015      44.498  36.094  31.373  0.00  0.00     0.020 C 
ENDROOT
BRANCH   4  21
ATOM     21  C7  LG1 d5015      40.128  30.298  32.765  0.00  0.00     0.128 C 
ATOM     22  O1  LG1 d5015      39.629  30.331  33.869  0.00  0.00    -0.298 OA
ATOM     23  C8  LG1 d5015      40.842  29.076  32.299  0.00  0.00     0.091 C 
ENDBRANCH   4  21
TORSDOF 1
ENDMDL
MODEL 4
REMARK VINA RESULT:    -6.367      1.635      7.088
REMARK INTER + INTRA:          -6.938
REMARK INTER:                  -6.736
REMARK INTRA:                  -0.202
REMARK UNBOUND:                -0.199
REMARK  1 active torsions:
REMARK  status: ('A' for Active; 'I' for Inactive)
REMARK    1  A    between atoms: C7_7  and  C4_4 
ROOT
ATOM      1  C1  LG1 d5015      41.719  36.647  30.425  0.00  0.00    -0.004 C 
ATOM      2  C2  LG1 d5015      40.483  35.750  30.564  0.00  0.00    -0.001 C 
ATOM      3  C3  LG1 d5015      40.844  34.224  30.700  0.00  0.00    -0.030 C 
ATOM      4  C4  LG1 d5015      39.399  33.659  30.901  0.00  0.00     0.063 C 
ATOM      5  C5  LG1 d5015      38.678  34.706  31.821  0.00  0.00     0.013 C 
ATOM      6  C6  LG1 d5015      39.531  36.025  31.753  0.00  0.00     0.006 C 
ATOM      7  C9  LG1 d5015      41.718  33.901  31.963  0.00  0.00     0.016 C 
ATOM      8  C10 LG1 d5015      41.543  33.835  29.378  0.00  0.00     0.011 C 
ATOM      9  C11 LG1 d5015      42.806  34.706  29.133  0.00  0.00     0.007 C 
ATOM     10  C12 LG1 d5015      42.480  36.222  29.126  0.00  0.00     0.002 C 
ATOM     11  C13 LG1 d5015      43.767  37.088  28.861  0.00  0.00    -0.016 C 
ATOM     12  C14 LG1 d5015      43.361  38.617  28.887  0.00  0.00    -0.068 C 
ATOM     13  C15 LG1 d5015      43.737  39.492  27.972  0.00  0.00     0.053 C 
ATOM     14  C16 LG1 d5015      44.674  39.137  26.917  0.00  0.00     0.149 C 
ATOM     15  C17 LG1 d5015      45.323  37.756  26.903  0.00  0.00     0.084 C 
ATOM     16  C18 LG1 d5015      44.325  36.711  27.463  0.00  0.00     0.022 C 
ATOM     17  O2  LG1 d5015      45.008  39.977  26.063  0.00  0.00    -0.293 OA
ATOM     18  C19 LG1 d5015      42.456  39.089  30.020  0.00  0.00     0.035 C 
ATOM     19  C20 LG1 d5015      41.280  38.125  30.271  0.00  0.00     0.010 C 
ATOM     20  C21 LG1 d5015      44.864  36.901  29.979  0.00  0.00     0.020 C 
ENDROOT
BRANCH   4  21
ATOM     21  C7  LG1 d5015      39.335  32.204  31.395  0.00  0.00     0.128 C 
ATOM     22  O1  LG1 d5015      39.711  31.301  30.679  0.00  0.00    -0.298 OA
ATOM     23  C8  LG1 d5015      38.817  31.915  32.762  0.00  0.00     0.091 C 
ENDBRANCH   4  21
TORSDOF 1
ENDMDL
MODEL 5
REMARK VINA RESULT:    -6.165      1.709      3.157
REMARK INTER + INTRA:          -6.725
REMARK INTER:                  -6.525
REMARK INTRA:                  -0.199
REMARK UNBOUND:                -0.199
REMARK  1 active torsions:
REMARK  status: ('A' for Active; 'I' for Inactive)
REMARK    1  A    between atoms: C7_7  and  C4_4 
ROOT
ATOM      1  C1  LG1 d5015      42.656  33.840  31.298  0.00  0.00    -0.004 C 
ATOM      2  C2  LG1 d5015      43.416  34.808  30.385  0.00  0.00    -0.001 C 
ATOM      3  C3  LG1 d5015      42.519  35.992  29.863  0.00  0.00    -0.030 C 
ATOM      4  C4  LG1 d5015      43.613  36.782  29.071  0.00  0.00     0.063 C 
ATOM      5  C5  LG1 d5015      44.904  36.687  29.957  0.00  0.00     0.013 C 
ATOM      6  C6  LG1 d5015      44.669  35.506  30.967  0.00  0.00     0.006 C 
ATOM      7  C9  LG1 d5015      41.946  36.893  31.014  0.00  0.00     0.016 C 
ATOM      8  C10 LG1 d5015      41.409  35.338  29.011  0.00  0.00     0.011 C 
ATOM      9  C11 LG1 d5015      40.587  34.317  29.846  0.00  0.00     0.007 C 
ATOM     10  C12 LG1 d5015      41.482  33.217  30.473  0.00  0.00     0.002 C 
ATOM     11  C13 LG1 d5015      40.632  32.184  31.301  0.00  0.00    -0.016 C 
ATOM     12  C14 LG1 d5015      41.612  31.107  31.922  0.00  0.00    -0.068 C 
ATOM     13  C15 LG1 d5015      41.399  29.805  31.870  0.00  0.00     0.053 C 
ATOM     14  C16 LG1 d5015      40.162  29.255  31.337  0.00  0.00     0.149 C 
ATOM     15  C17 LG1 d5015      39.032  30.187  30.911  0.00  0.00     0.084 C 
ATOM     16  C18 LG1 d5015      39.631  31.495  30.336  0.00  0.00     0.022 C 
ATOM     17  O2  LG1 d5015      39.987  28.024  31.294  0.00  0.00    -0.293 OA
ATOM     18  C19 LG1 d5015      42.889  31.612  32.586  0.00  0.00     0.035 C 
ATOM     19  C20 LG1 d5015      43.598  32.693  31.746  0.00  0.00     0.010 C 
ATOM     20  C21 LG1 d5015      39.882  32.853  32.516  0.00  0.00     0.020 C 
ENDROOT
BRANCH   4  21
ATOM     21  C7  LG1 d5015      43.209  38.207  28.658  0.00  0.00     0.128 C 
ATOM     22  O1  LG1 d5015      42.366  38.379  27.804  0.00  0.00    -0.298 OA
ATOM     23  C8  LG1 d5015      43.856  39.375  29.320  0.00  0.00     0.091 C 
ENDBRANCH   4  21
TORSDOF 1
ENDMDL
