MODEL 1
REMARK VINA RESULT:    -8.282      0.000      0.000
REMARK INTER + INTRA:          -8.967
REMARK INTER:                  -8.958
REMARK INTRA:                  -0.009
REMARK UNBOUND:                -0.201
REMARK  1 active torsions:
REMARK  status: ('A' for Active; 'I' for Inactive)
REMARK    1  A    between atoms: C7_7  and  C4_4 
ROOT
ATOM      1  C1  LG1 d5015      41.425  35.322  30.215  0.00  0.00    -0.004 C 
ATOM      2  C2  LG1 d5015      42.250  36.613  30.267  0.00  0.00    -0.001 C 
ATOM      3  C3  LG1 d5015      43.767  36.387  29.910  0.00  0.00    -0.030 C 
ATOM      4  C4  LG1 d5015      44.247  37.875  29.980  0.00  0.00     0.063 C 
ATOM      5  C5  LG1 d5015      43.079  38.709  29.346  0.00  0.00     0.013 C 
ATOM      6  C6  LG1 d5015      41.811  37.780  29.350  0.00  0.00     0.006 C 
ATOM      7  C9  LG1 d5015      43.989  35.828  28.460  0.00  0.00     0.016 C 
ATOM      8  C10 LG1 d5015      44.323  35.447  31.002  0.00  0.00     0.011 C 
ATOM      9  C11 LG1 d5015      43.536  34.107  31.044  0.00  0.00     0.007 C 
ATOM     10  C12 LG1 d5015      42.017  34.327  31.267  0.00  0.00     0.002 C 
ATOM     11  C13 LG1 d5015      41.239  32.961  31.323  0.00  0.00    -0.016 C 
ATOM     12  C14 LG1 d5015      39.700  33.266  31.533  0.00  0.00    -0.068 C 
ATOM     13  C15 LG1 d5015      38.944  32.646  32.421  0.00  0.00     0.053 C 
ATOM     14  C16 LG1 d5015      39.448  31.529  33.205  0.00  0.00     0.149 C 
ATOM     15  C17 LG1 d5015      40.848  30.981  32.944  0.00  0.00     0.084 C 
ATOM     16  C18 LG1 d5015      41.785  32.140  32.521  0.00  0.00     0.022 C 
ATOM     17  O2  LG1 d5015      38.719  30.965  34.041  0.00  0.00    -0.293 OA
ATOM     18  C19 LG1 d5015      39.072  34.362  30.678  0.00  0.00     0.035 C 
ATOM     19  C20 LG1 d5015      39.955  35.622  30.602  0.00  0.00     0.010 C 
ATOM     20  C21 LG1 d5015      41.349  32.145  29.978  0.00  0.00     0.020 C 
ENDROOT
BRANCH   4  21
ATOM     21  C7  LG1 d5015      45.637  38.136  29.376  0.00  0.00     0.128 C 
ATOM     22  O1  LG1 d5015      45.758  38.325  28.185  0.00  0.00    -0.298 OA
ATOM     23  C8  LG1 d5015      46.831  38.161  30.266  0.00  0.00     0.091 C 
ENDBRANCH   4  21
TORSDOF 1
ENDMDL
MODEL 2
REMARK VINA RESULT:    -7.214      1.167      7.205
REMARK INTER + INTRA:          -7.836
REMARK INTER:                  -8.012
REMARK INTRA:                   0.176
REMARK UNBOUND:                -0.201
REMARK  1 active torsions:
REMARK  status: ('A' for Active; 'I' for Inactive)
REMARK    1  A    between atoms: C7_7  and  C4_4 
ROOT
ATOM      1  C1  LG1 d5015      43.224  34.273  30.611  0.00  0.00    -0.004 C 
ATOM      2  C2  LG1 d5015      42.362  33.530  31.637  0.00  0.00    -0.001 C 
ATOM      3  C3  LG1 d5015      40.914  33.214  31.108  0.00  0.00    -0.030 C 
ATOM      4  C4  LG1 d5015      40.384  32.411  32.343  0.00  0.00     0.063 C 
ATOM      5  C5  LG1 d5015      41.601  31.537  32.811  0.00  0.00     0.013 C 
ATOM      6  C6  LG1 d5015      42.884  32.170  32.159  0.00  0.00     0.006 C 
ATOM      7  C9  LG1 d5015      40.902  32.295  29.836  0.00  0.00     0.016 C 
ATOM      8  C10 LG1 d5015      40.245  34.584  30.859  0.00  0.00     0.011 C 
ATOM      9  C11 LG1 d5015      41.059  35.428  29.839  0.00  0.00     0.007 C 
ATOM     10  C12 LG1 d5015      42.528  35.637  30.291  0.00  0.00     0.002 C 
ATOM     11  C13 LG1 d5015      43.333  36.506  29.255  0.00  0.00    -0.016 C 
ATOM     12  C14 LG1 d5015      44.820  36.659  29.773  0.00  0.00    -0.068 C 
ATOM     13  C15 LG1 d5015      45.470  37.809  29.809  0.00  0.00     0.053 C 
ATOM     14  C16 LG1 d5015      44.900  39.025  29.250  0.00  0.00     0.149 C 
ATOM     15  C17 LG1 d5015      43.564  38.976  28.515  0.00  0.00     0.084 C 
ATOM     16  C18 LG1 d5015      42.657  37.901  29.164  0.00  0.00     0.022 C 
ATOM     17  O2  LG1 d5015      45.529  40.097  29.302  0.00  0.00    -0.293 OA
ATOM     18  C19 LG1 d5015      45.523  35.407  30.288  0.00  0.00     0.035 C 
ATOM     19  C20 LG1 d5015      44.621  34.569  31.214  0.00  0.00     0.010 C 
ATOM     20  C21 LG1 d5015      43.425  35.826  27.835  0.00  0.00     0.020 C 
ENDROOT
BRANCH   4  21
ATOM     21  C7  LG1 d5015      39.079  31.634  32.099  0.00  0.00     0.128 C 
ATOM     22  O1  LG1 d5015      38.020  32.086  32.480  0.00  0.00    -0.298 OA
ATOM     23  C8  LG1 d5015      39.126  30.328  31.385  0.00  0.00     0.091 C 
ENDBRANCH   4  21
TORSDOF 1
ENDMDL
MODEL 3
REMARK VINA RESULT:    -6.861      1.269      6.922
REMARK INTER + INTRA:          -7.463
REMARK INTER:                  -7.332
REMARK INTRA:                  -0.131
REMARK UNBOUND:                -0.201
REMARK  1 active torsions:
REMARK  status: ('A' for Active; 'I' for Inactive)
REMARK    1  A    between atoms: C7_7  and  C4_4 
ROOT
ATOM      1  C1  LG1 d5015      41.536  34.899  31.016  0.00  0.00    -0.004 C 
ATOM      2  C2  LG1 d5015      40.586  33.700  31.112  0.00  0.00    -0.001 C 
ATOM      3  C3  LG1 d5015      41.217  32.477  31.877  0.00  0.00    -0.030 C 
ATOM      4  C4  LG1 d5015      39.978  31.522  31.851  0.00  0.00     0.063 C 
ATOM      5  C5  LG1 d5015      38.740  32.455  32.098  0.00  0.00     0.013 C 
ATOM      6  C6  LG1 d5015      39.221  33.922  31.807  0.00  0.00     0.006 C 
ATOM      7  C9  LG1 d5015      41.602  32.803  33.363  0.00  0.00     0.016 C 
ATOM      8  C10 LG1 d5015      42.431  32.030  31.032  0.00  0.00     0.011 C 
ATOM      9  C11 LG1 d5015      43.451  33.189  30.858  0.00  0.00     0.007 C 
ATOM     10  C12 LG1 d5015      42.806  34.448  30.222  0.00  0.00     0.002 C 
ATOM     11  C13 LG1 d5015      43.856  35.605  30.039  0.00  0.00    -0.016 C 
ATOM     12  C14 LG1 d5015      43.123  36.856  29.405  0.00  0.00    -0.068 C 
ATOM     13  C15 LG1 d5015      43.599  37.545  28.383  0.00  0.00     0.053 C 
ATOM     14  C16 LG1 d5015      44.918  37.278  27.831  0.00  0.00     0.149 C 
ATOM     15  C17 LG1 d5015      45.829  36.247  28.491  0.00  0.00     0.084 C 
ATOM     16  C18 LG1 d5015      44.970  35.102  29.082  0.00  0.00     0.022 C 
ATOM     17  O2  LG1 d5015      45.342  37.936  26.865  0.00  0.00    -0.293 OA
ATOM     18  C19 LG1 d5015      41.776  37.259  29.993  0.00  0.00     0.035 C 
ATOM     19  C20 LG1 d5015      40.853  36.048  30.230  0.00  0.00     0.010 C 
ATOM     20  C21 LG1 d5015      44.463  36.094  31.409  0.00  0.00     0.020 C 
ENDROOT
BRANCH   4  21
ATOM     21  C7  LG1 d5015      40.077  30.308  32.791  0.00  0.00     0.128 C 
ATOM     22  O1  LG1 d5015      39.547  30.337  33.882  0.00  0.00    -0.298 OA
ATOM     23  C8  LG1 d5015      40.821  29.096  32.349  0.00  0.00     0.091 C 
ENDBRANCH   4  21
TORSDOF 1
ENDMDL
MODEL 4
REMARK VINA RESULT:    -6.371      1.635      7.089
REMARK INTER + INTRA:          -6.944
REMARK INTER:                  -6.740
REMARK INTRA:                  -0.204
REMARK UNBOUND:                -0.201
REMARK  1 active torsions:
REMARK  status: ('A' for Active; 'I' for Inactive)
REMARK    1  A    between atoms: C7_7  and  C4_4 
ROOT
ATOM      1  C1  LG1 d5015      41.725  36.647  30.425  0.00  0.00    -0.004 C 
ATOM      2  C2  LG1 d5015      40.496  35.741  30.557  0.00  0.00    -0.001 C 
ATOM      3  C3  LG1 d5015      40.868  34.216  30.683  0.00  0.00    -0.030 C 
ATOM      4  C4  LG1 d5015      39.426  33.640  30.880  0.00  0.00     0.063 C 
ATOM      5  C5  LG1 d5015      38.697  34.675  31.806  0.00  0.00     0.013 C 
ATOM      6  C6  LG1 d5015      39.541  36.000  31.747  0.00  0.00     0.006 C 
ATOM      7  C9  LG1 d5015      41.743  33.891  31.945  0.00  0.00     0.016 C 
ATOM      8  C10 LG1 d5015      41.570  33.841  29.359  0.00  0.00     0.011 C 
ATOM      9  C11 LG1 d5015      42.827  34.723  29.121  0.00  0.00     0.007 C 
ATOM     10  C12 LG1 d5015      42.490  36.237  29.124  0.00  0.00     0.002 C 
ATOM     11  C13 LG1 d5015      43.771  37.113  28.865  0.00  0.00    -0.016 C 
ATOM     12  C14 LG1 d5015      43.354  38.640  28.901  0.00  0.00    -0.068 C 
ATOM     13  C15 LG1 d5015      43.724  39.523  27.992  0.00  0.00     0.053 C 
ATOM     14  C16 LG1 d5015      44.664  39.182  26.935  0.00  0.00     0.149 C 
ATOM     15  C17 LG1 d5015      45.323  37.806  26.913  0.00  0.00     0.084 C 
ATOM     16  C18 LG1 d5015      44.333  36.750  27.465  0.00  0.00     0.022 C 
ATOM     17  O2  LG1 d5015      44.993  40.030  26.087  0.00  0.00    -0.293 OA
ATOM     18  C19 LG1 d5015      42.445  39.098  30.037  0.00  0.00     0.035 C 
ATOM     19  C20 LG1 d5015      41.276  38.123  30.280  0.00  0.00     0.010 C 
ATOM     20  C21 LG1 d5015      44.868  36.927  29.983  0.00  0.00     0.020 C 
ENDROOT
BRANCH   4  21
ATOM     21  C7  LG1 d5015      39.373  32.181  31.364  0.00  0.00     0.128 C 
ATOM     22  O1  LG1 d5015      39.767  31.286  30.647  0.00  0.00    -0.298 OA
ATOM     23  C8  LG1 d5015      38.842  31.878  32.722  0.00  0.00     0.091 C 
ENDBRANCH   4  21
TORSDOF 1
ENDMDL
MODEL 5
REMARK VINA RESULT:    -6.192      1.727      3.170
REMARK INTER + INTRA:          -6.755
REMARK INTER:                  -6.554
REMARK INTRA:                  -0.201
REMARK UNBOUND:                -0.201
REMARK  1 active torsions:
REMARK  status: ('A' for Active; 'I' for Inactive)
REMARK    1  A    between atoms: C7_7  and  C4_4 
ROOT
ATOM      1  C1  LG1 d5015      42.672  33.837  31.307  0.00  0.00    -0.004 C 
ATOM      2  C2  LG1 d5015      43.437  34.814  30.408  0.00  0.00    -0.001 C 
ATOM      3  C3  LG1 d5015      42.538  35.991  29.875  0.00  0.00    -0.030 C 
ATOM      4  C4  LG1 d5015      43.637  36.793  29.102  0.00  0.00     0.063 C 
ATOM      5  C5  LG1 d5015      44.915  36.708  30.009  0.00  0.00     0.013 C 
ATOM      6  C6  LG1 d5015      44.674  35.522  31.012  0.00  0.00     0.006 C 
ATOM      7  C9  LG1 d5015      41.938  36.883  31.018  0.00  0.00     0.016 C 
ATOM      8  C10 LG1 d5015      41.448  35.329  29.003  0.00  0.00     0.011 C 
ATOM      9  C11 LG1 d5015      40.622  34.299  29.822  0.00  0.00     0.007 C 
ATOM     10  C12 LG1 d5015      41.517  33.205  30.461  0.00  0.00     0.002 C 
ATOM     11  C13 LG1 d5015      40.663  32.162  31.273  0.00  0.00    -0.016 C 
ATOM     12  C14 LG1 d5015      41.643  31.093  31.907  0.00  0.00    -0.068 C 
ATOM     13  C15 LG1 d5015      41.443  29.789  31.849  0.00  0.00     0.053 C 
ATOM     14  C16 LG1 d5015      40.220  29.229  31.295  0.00  0.00     0.149 C 
ATOM     15  C17 LG1 d5015      39.088  30.152  30.851  0.00  0.00     0.084 C 
ATOM     16  C18 LG1 d5015      39.684  31.466  30.290  0.00  0.00     0.022 C 
ATOM     17  O2  LG1 d5015      40.057  27.997  31.245  0.00  0.00    -0.293 OA
ATOM     18  C19 LG1 d5015      42.904  31.608  32.593  0.00  0.00     0.035 C 
ATOM     19  C20 LG1 d5015      43.616  32.697  31.768  0.00  0.00     0.010 C 
ATOM     20  C21 LG1 d5015      39.887  32.821  32.476  0.00  0.00     0.020 C 
ENDROOT
BRANCH   4  21
ATOM     21  C7  LG1 d5015      43.227  38.216  28.686  0.00  0.00     0.128 C 
ATOM     22  O1  LG1 d5015      42.398  38.381  27.816  0.00  0.00    -0.298 OA
ATOM     23  C8  LG1 d5015      43.849  39.387  29.363  0.00  0.00     0.091 C 
ENDBRANCH   4  21
TORSDOF 1
ENDMDL
