REMARK INTER + INTRA:          -6.758
REMARK INTER:                  -6.560
REMARK INTRA:                  -0.197
REMARK UNBOUND:                -0.197
REMARK  1 active torsions:
REMARK  status: ('A' for Active; 'I' for Inactive)
REMARK    1  A    between atoms: C7_7  and  C4_4 
ROOT
ATOM      1  C1  LG1 d5015      42.669  33.870  31.287  0.00  0.00    -0.004 C 
ATOM      2  C2  LG1 d5015      43.427  34.843  30.378  0.00  0.00    -0.001 C 
ATOM      3  C3  LG1 d5015      42.521  36.010  29.836  0.00  0.00    -0.030 C 
ATOM      4  C4  LG1 d5015      43.614  36.812  29.054  0.00  0.00     0.063 C 
ATOM      5  C5  LG1 d5015      44.894  36.742  29.959  0.00  0.00     0.013 C 
ATOM      6  C6  LG1 d5015      44.661  35.564  30.973  0.00  0.00     0.006 C 
ATOM      7  C9  LG1 d5015      41.918  36.910  30.972  0.00  0.00     0.016 C 
ATOM      8  C10 LG1 d5015      41.433  35.334  28.971  0.00  0.00     0.011 C 
ATOM      9  C11 LG1 d5015      40.614  34.307  29.801  0.00  0.00     0.007 C 
ATOM     10  C12 LG1 d5015      41.517  33.224  30.448  0.00  0.00     0.002 C 
ATOM     11  C13 LG1 d5015      40.670  32.184  31.271  0.00  0.00    -0.016 C 
ATOM     12  C14 LG1 d5015      41.657  31.126  31.913  0.00  0.00    -0.068 C 
ATOM     13  C15 LG1 d5015      41.463  29.820  31.868  0.00  0.00     0.053 C 
ATOM     14  C16 LG1 d5015      40.243  29.248  31.320  0.00  0.00     0.149 C 
ATOM     15  C17 LG1 d5015      39.105  30.161  30.871  0.00  0.00     0.084 C 
ATOM     16  C18 LG1 d5015      39.693  31.473  30.296  0.00  0.00     0.022 C 
ATOM     17  O2  LG1 d5015      40.087  28.015  31.282  0.00  0.00    -0.293 OA
ATOM     18  C19 LG1 d5015      42.916  31.654  32.593  0.00  0.00     0.035 C 
ATOM     19  C20 LG1 d5015      43.621  32.740  31.756  0.00  0.00     0.010 C 
ATOM     20  C21 LG1 d5015      39.892  32.849  32.470  0.00  0.00     0.020 C 
ENDROOT
BRANCH   4  21
ATOM     21  C7  LG1 d5015      43.196  38.228  28.625  0.00  0.00     0.128 C 
ATOM     22  O1  LG1 d5015      42.369  38.381  27.752  0.00  0.00    -0.298 OA
ATOM     23  C8  LG1 d5015      43.807  39.408  29.297  0.00  0.00     0.091 C 
ENDBRANCH   4  21
TORSDOF 1
ENDMDL
