REMARK INTER + INTRA:          -6.943
REMARK INTER:                  -6.741
REMARK INTRA:                  -0.202
REMARK UNBOUND:                -0.201
REMARK  1 active torsions:
REMARK  status: ('A' for Active; 'I' for Inactive)
REMARK    1  A    between atoms: C7_7  and  C4_4 
ROOT
ATOM      1  C1  LG1 d5015      41.701  36.629  30.444  0.00  0.00    -0.004 C 
ATOM      2  C2  LG1 d5015      40.467  35.732  30.580  0.00  0.00    -0.001 C 
ATOM      3  C3  LG1 d5015      40.829  34.205  30.706  0.00  0.00    -0.030 C 
ATOM      4  C4  LG1 d5015      39.384  33.638  30.907  0.00  0.00     0.063 C 
ATOM      5  C5  LG1 d5015      38.665  34.679  31.835  0.00  0.00     0.013 C 
ATOM      6  C6  LG1 d5015      39.517  35.998  31.773  0.00  0.00     0.006 C 
ATOM      7  C9  LG1 d5015      41.706  33.874  31.965  0.00  0.00     0.016 C 
ATOM      8  C10 LG1 d5015      41.524  33.824  29.380  0.00  0.00     0.011 C 
ATOM      9  C11 LG1 d5015      42.787  34.697  29.137  0.00  0.00     0.007 C 
ATOM     10  C12 LG1 d5015      42.460  36.213  29.140  0.00  0.00     0.002 C 
ATOM     11  C13 LG1 d5015      43.746  37.081  28.877  0.00  0.00    -0.016 C 
ATOM     12  C14 LG1 d5015      43.338  38.610  28.913  0.00  0.00    -0.068 C 
ATOM     13  C15 LG1 d5015      43.712  39.490  28.003  0.00  0.00     0.053 C 
ATOM     14  C16 LG1 d5015      44.646  39.142  26.943  0.00  0.00     0.149 C 
ATOM     15  C17 LG1 d5015      45.296  37.762  26.919  0.00  0.00     0.084 C 
ATOM     16  C18 LG1 d5015      44.301  36.714  27.475  0.00  0.00     0.022 C 
ATOM     17  O2  LG1 d5015      44.978  39.988  26.093  0.00  0.00    -0.293 OA
ATOM     18  C19 LG1 d5015      42.436  39.075  30.051  0.00  0.00     0.035 C 
ATOM     19  C20 LG1 d5015      41.261  38.109  30.299  0.00  0.00     0.010 C 
ATOM     20  C21 LG1 d5015      44.845  36.889  29.991  0.00  0.00     0.020 C 
ENDROOT
BRANCH   4  21
ATOM     21  C7  LG1 d5015      39.323  32.180  31.393  0.00  0.00     0.128 C 
ATOM     22  O1  LG1 d5015      39.677  31.279  30.662  0.00  0.00    -0.298 OA
ATOM     23  C8  LG1 d5015      38.833  31.885  32.768  0.00  0.00     0.091 C 
ENDBRANCH   4  21
TORSDOF 1
ENDMDL
