REMARK INTER + INTRA:          -8.969
REMARK INTER:                  -8.974
REMARK INTRA:                   0.006
REMARK UNBOUND:                -0.199
REMARK  1 active torsions:
REMARK  status: ('A' for Active; 'I' for Inactive)
REMARK    1  A    between atoms: C7_7  and  C4_4 
ROOT
ATOM      1  C1  LG1 d5015      41.429  35.310  30.211  0.00  0.00    -0.004 C 
ATOM      2  C2  LG1 d5015      42.251  36.602  30.268  0.00  0.00    -0.001 C 
ATOM      3  C3  LG1 d5015      43.769  36.381  29.917  0.00  0.00    -0.030 C 
ATOM      4  C4  LG1 d5015      44.246  37.870  29.991  0.00  0.00     0.063 C 
ATOM      5  C5  LG1 d5015      43.079  38.702  29.353  0.00  0.00     0.013 C 
ATOM      6  C6  LG1 d5015      41.813  37.769  29.350  0.00  0.00     0.006 C 
ATOM      7  C9  LG1 d5015      43.999  35.824  28.468  0.00  0.00     0.016 C 
ATOM      8  C10 LG1 d5015      44.324  35.440  31.010  0.00  0.00     0.011 C 
ATOM      9  C11 LG1 d5015      43.539  34.099  31.048  0.00  0.00     0.007 C 
ATOM     10  C12 LG1 d5015      42.019  34.315  31.264  0.00  0.00     0.002 C 
ATOM     11  C13 LG1 d5015      41.243  32.947  31.316  0.00  0.00    -0.016 C 
ATOM     12  C14 LG1 d5015      39.703  33.248  31.519  0.00  0.00    -0.068 C 
ATOM     13  C15 LG1 d5015      38.945  32.626  32.404  0.00  0.00     0.053 C 
ATOM     14  C16 LG1 d5015      39.448  31.509  33.189  0.00  0.00     0.149 C 
ATOM     15  C17 LG1 d5015      40.850  30.965  32.933  0.00  0.00     0.084 C 
ATOM     16  C18 LG1 d5015      41.786  32.126  32.516  0.00  0.00     0.022 C 
ATOM     17  O2  LG1 d5015      38.716  30.943  34.021  0.00  0.00    -0.293 OA
ATOM     18  C19 LG1 d5015      39.076  34.344  30.663  0.00  0.00     0.035 C 
ATOM     19  C20 LG1 d5015      39.957  35.607  30.592  0.00  0.00     0.010 C 
ATOM     20  C21 LG1 d5015      41.362  32.133  29.970  0.00  0.00     0.020 C 
ENDROOT
BRANCH   4  21
ATOM     21  C7  LG1 d5015      45.638  38.134  29.393  0.00  0.00     0.128 C 
ATOM     22  O1  LG1 d5015      45.765  38.309  28.200  0.00  0.00    -0.298 OA
ATOM     23  C8  LG1 d5015      46.825  38.181  30.291  0.00  0.00     0.091 C 
ENDBRANCH   4  21
TORSDOF 1
ENDMDL
