MODEL 1
REMARK VINA RESULT:    -8.290      0.000      0.000
REMARK INTER + INTRA:          -8.975
REMARK INTER:                  -8.971
REMARK INTRA:                  -0.004
REMARK UNBOUND:                -0.201
REMARK  1 active torsions:
REMARK  status: ('A' for Active; 'I' for Inactive)
REMARK    1  A    between atoms: C7_7  and  C4_4 
ROOT
ATOM      1  C1  LG1 d5015      41.430  35.305  30.208  0.00  0.00    -0.004 C 
ATOM      2  C2  LG1 d5015      42.252  36.597  30.259  0.00  0.00    -0.001 C 
ATOM      3  C3  LG1 d5015      43.775  36.369  29.934  0.00  0.00    -0.030 C 
ATOM      4  C4  LG1 d5015      44.252  37.858  29.993  0.00  0.00     0.063 C 
ATOM      5  C5  LG1 d5015      43.096  38.682  29.325  0.00  0.00     0.013 C 
ATOM      6  C6  LG1 d5015      41.830  37.751  29.317  0.00  0.00     0.006 C 
ATOM      7  C9  LG1 d5015      44.026  35.791  28.496  0.00  0.00     0.016 C 
ATOM      8  C10 LG1 d5015      44.312  35.444  31.049  0.00  0.00     0.011 C 
ATOM      9  C11 LG1 d5015      43.526  34.104  31.094  0.00  0.00     0.007 C 
ATOM     10  C12 LG1 d5015      42.003  34.325  31.284  0.00  0.00     0.002 C 
ATOM     11  C13 LG1 d5015      41.225  32.958  31.344  0.00  0.00    -0.016 C 
ATOM     12  C14 LG1 d5015      39.682  33.264  31.520  0.00  0.00    -0.068 C 
ATOM     13  C15 LG1 d5015      38.910  32.655  32.402  0.00  0.00     0.053 C 
ATOM     14  C16 LG1 d5015      39.400  31.549  33.210  0.00  0.00     0.149 C 
ATOM     15  C17 LG1 d5015      40.805  31.000  32.983  0.00  0.00     0.084 C 
ATOM     16  C18 LG1 d5015      41.749  32.154  32.563  0.00  0.00     0.022 C 
ATOM     17  O2  LG1 d5015      38.655  30.996  34.039  0.00  0.00    -0.293 OA
ATOM     18  C19 LG1 d5015      39.070  34.347  30.638  0.00  0.00     0.035 C 
ATOM     19  C20 LG1 d5015      39.952  35.608  30.563  0.00  0.00     0.010 C 
ATOM     20  C21 LG1 d5015      41.363  32.125  30.012  0.00  0.00     0.020 C 
ENDROOT
BRANCH   4  21
ATOM     21  C7  LG1 d5015      45.653  38.113  29.412  0.00  0.00     0.128 C 
ATOM     22  O1  LG1 d5015      45.797  38.283  28.221  0.00  0.00    -0.298 OA
ATOM     23  C8  LG1 d5015      46.829  38.156  30.326  0.00  0.00     0.091 C 
ENDBRANCH   4  21
TORSDOF 1
ENDMDL
MODEL 2
REMARK VINA RESULT:    -7.196      1.190      7.206
REMARK INTER + INTRA:          -7.817
REMARK INTER:                  -8.019
REMARK INTRA:                   0.202
REMARK UNBOUND:                -0.201
REMARK  1 active torsions:
REMARK  status: ('A' for Active; 'I' for Inactive)
REMARK    1  A    between atoms: C7_7  and  C4_4 
ROOT
ATOM      1  C1  LG1 d5015      43.247  34.229  30.635  0.00  0.00    -0.004 C 
ATOM      2  C2  LG1 d5015      42.367  33.476  31.638  0.00  0.00    -0.001 C 
ATOM      3  C3  LG1 d5015      40.923  33.179  31.086  0.00  0.00    -0.030 C 
ATOM      4  C4  LG1 d5015      40.373  32.359  32.300  0.00  0.00     0.063 C 
ATOM      5  C5  LG1 d5015      41.577  31.468  32.767  0.00  0.00     0.013 C 
ATOM      6  C6  LG1 d5015      42.872  32.103  32.143  0.00  0.00     0.006 C 
ATOM      7  C9  LG1 d5015      40.920  32.282  29.798  0.00  0.00     0.016 C 
ATOM      8  C10 LG1 d5015      40.267  34.558  30.852  0.00  0.00     0.011 C 
ATOM      9  C11 LG1 d5015      41.100  35.414  29.857  0.00  0.00     0.007 C 
ATOM     10  C12 LG1 d5015      42.564  35.604  30.330  0.00  0.00     0.002 C 
ATOM     11  C13 LG1 d5015      43.388  36.485  29.319  0.00  0.00    -0.016 C 
ATOM     12  C14 LG1 d5015      44.870  36.618  29.857  0.00  0.00    -0.068 C 
ATOM     13  C15 LG1 d5015      45.527  37.762  29.921  0.00  0.00     0.053 C 
ATOM     14  C16 LG1 d5015      44.973  38.992  29.376  0.00  0.00     0.149 C 
ATOM     15  C17 LG1 d5015      43.645  38.965  28.624  0.00  0.00     0.084 C 
ATOM     16  C18 LG1 d5015      42.723  37.886  29.243  0.00  0.00     0.022 C 
ATOM     17  O2  LG1 d5015      45.608  40.058  29.455  0.00  0.00    -0.293 OA
ATOM     18  C19 LG1 d5015      45.557  35.352  30.359  0.00  0.00     0.035 C 
ATOM     19  C20 LG1 d5015      44.638  34.505  31.260  0.00  0.00     0.010 C 
ATOM     20  C21 LG1 d5015      43.493  35.828  27.889  0.00  0.00     0.020 C 
ENDROOT
BRANCH   4  21
ATOM     21  C7  LG1 d5015      39.066  31.596  32.027  0.00  0.00     0.128 C 
ATOM     22  O1  LG1 d5015      38.008  32.039  32.422  0.00  0.00    -0.298 OA
ATOM     23  C8  LG1 d5015      39.108  30.316  31.267  0.00  0.00     0.091 C 
ENDBRANCH   4  21
TORSDOF 1
ENDMDL
MODEL 3
REMARK VINA RESULT:    -6.866      1.272      6.920
REMARK INTER + INTRA:          -7.468
REMARK INTER:                  -7.338
REMARK INTRA:                  -0.131
REMARK UNBOUND:                -0.201
REMARK  1 active torsions:
REMARK  status: ('A' for Active; 'I' for Inactive)
REMARK    1  A    between atoms: C7_7  and  C4_4 
ROOT
ATOM      1  C1  LG1 d5015      41.539  34.908  31.004  0.00  0.00    -0.004 C 
ATOM      2  C2  LG1 d5015      40.593  33.706  31.098  0.00  0.00    -0.001 C 
ATOM      3  C3  LG1 d5015      41.230  32.481  31.854  0.00  0.00    -0.030 C 
ATOM      4  C4  LG1 d5015      39.993  31.522  31.829  0.00  0.00     0.063 C 
ATOM      5  C5  LG1 d5015      38.755  32.451  32.086  0.00  0.00     0.013 C 
ATOM      6  C6  LG1 d5015      39.231  33.921  31.800  0.00  0.00     0.006 C 
ATOM      7  C9  LG1 d5015      41.621  32.800  33.340  0.00  0.00     0.016 C 
ATOM      8  C10 LG1 d5015      42.441  32.041  31.002  0.00  0.00     0.011 C 
ATOM      9  C11 LG1 d5015      43.458  33.203  30.829  0.00  0.00     0.007 C 
ATOM     10  C12 LG1 d5015      42.807  34.463  30.202  0.00  0.00     0.002 C 
ATOM     11  C13 LG1 d5015      43.854  35.624  30.019  0.00  0.00    -0.016 C 
ATOM     12  C14 LG1 d5015      43.115  36.876  29.395  0.00  0.00    -0.068 C 
ATOM     13  C15 LG1 d5015      43.584  37.571  28.375  0.00  0.00     0.053 C 
ATOM     14  C16 LG1 d5015      44.902  37.310  27.815  0.00  0.00     0.149 C 
ATOM     15  C17 LG1 d5015      45.818  36.279  28.466  0.00  0.00     0.084 C 
ATOM     16  C18 LG1 d5015      44.965  35.128  29.055  0.00  0.00     0.022 C 
ATOM     17  O2  LG1 d5015      45.319  37.974  26.850  0.00  0.00    -0.293 OA
ATOM     18  C19 LG1 d5015      41.769  37.273  29.991  0.00  0.00     0.035 C 
ATOM     19  C20 LG1 d5015      40.851  36.058  30.226  0.00  0.00     0.010 C 
ATOM     20  C21 LG1 d5015      44.466  36.108  31.390  0.00  0.00     0.020 C 
ENDROOT
BRANCH   4  21
ATOM     21  C7  LG1 d5015      40.099  30.305  32.762  0.00  0.00     0.128 C 
ATOM     22  O1  LG1 d5015      39.575  30.327  33.855  0.00  0.00    -0.298 OA
ATOM     23  C8  LG1 d5015      40.844  29.096  32.310  0.00  0.00     0.091 C 
ENDBRANCH   4  21
TORSDOF 1
ENDMDL
MODEL 4
REMARK VINA RESULT:    -6.370      1.646      7.088
REMARK INTER + INTRA:          -6.943
REMARK INTER:                  -6.741
REMARK INTRA:                  -0.202
REMARK UNBOUND:                -0.201
REMARK  1 active torsions:
REMARK  status: ('A' for Active; 'I' for Inactive)
REMARK    1  A    between atoms: C7_7  and  C4_4 
ROOT
ATOM      1  C1  LG1 d5015      41.701  36.629  30.444  0.00  0.00    -0.004 C 
ATOM      2  C2  LG1 d5015      40.467  35.732  30.580  0.00  0.00    -0.001 C 
ATOM      3  C3  LG1 d5015      40.829  34.205  30.706  0.00  0.00    -0.030 C 
ATOM      4  C4  LG1 d5015      39.384  33.638  30.907  0.00  0.00     0.063 C 
ATOM      5  C5  LG1 d5015      38.665  34.679  31.835  0.00  0.00     0.013 C 
ATOM      6  C6  LG1 d5015      39.517  35.998  31.773  0.00  0.00     0.006 C 
ATOM      7  C9  LG1 d5015      41.706  33.874  31.965  0.00  0.00     0.016 C 
ATOM      8  C10 LG1 d5015      41.524  33.824  29.380  0.00  0.00     0.011 C 
ATOM      9  C11 LG1 d5015      42.787  34.697  29.137  0.00  0.00     0.007 C 
ATOM     10  C12 LG1 d5015      42.460  36.213  29.140  0.00  0.00     0.002 C 
ATOM     11  C13 LG1 d5015      43.746  37.081  28.877  0.00  0.00    -0.016 C 
ATOM     12  C14 LG1 d5015      43.338  38.610  28.913  0.00  0.00    -0.068 C 
ATOM     13  C15 LG1 d5015      43.712  39.490  28.003  0.00  0.00     0.053 C 
ATOM     14  C16 LG1 d5015      44.646  39.142  26.943  0.00  0.00     0.149 C 
ATOM     15  C17 LG1 d5015      45.296  37.762  26.919  0.00  0.00     0.084 C 
ATOM     16  C18 LG1 d5015      44.301  36.714  27.475  0.00  0.00     0.022 C 
ATOM     17  O2  LG1 d5015      44.978  39.988  26.093  0.00  0.00    -0.293 OA
ATOM     18  C19 LG1 d5015      42.436  39.075  30.051  0.00  0.00     0.035 C 
ATOM     19  C20 LG1 d5015      41.261  38.109  30.299  0.00  0.00     0.010 C 
ATOM     20  C21 LG1 d5015      44.845  36.889  29.991  0.00  0.00     0.020 C 
ENDROOT
BRANCH   4  21
ATOM     21  C7  LG1 d5015      39.323  32.180  31.393  0.00  0.00     0.128 C 
ATOM     22  O1  LG1 d5015      39.677  31.279  30.662  0.00  0.00    -0.298 OA
ATOM     23  C8  LG1 d5015      38.833  31.885  32.768  0.00  0.00     0.091 C 
ENDBRANCH   4  21
TORSDOF 1
ENDMDL
MODEL 5
REMARK VINA RESULT:    -6.203      1.740      3.177
REMARK INTER + INTRA:          -6.766
REMARK INTER:                  -6.565
REMARK INTRA:                  -0.201
REMARK UNBOUND:                -0.201
REMARK  1 active torsions:
REMARK  status: ('A' for Active; 'I' for Inactive)
REMARK    1  A    between atoms: C7_7  and  C4_4 
ROOT
ATOM      1  C1  LG1 d5015      42.674  33.841  31.298  0.00  0.00    -0.004 C 
ATOM      2  C2  LG1 d5015      43.436  34.813  30.391  0.00  0.00    -0.001 C 
ATOM      3  C3  LG1 d5015      42.535  35.986  29.852  0.00  0.00    -0.030 C 
ATOM      4  C4  LG1 d5015      43.631  36.783  29.071  0.00  0.00     0.063 C 
ATOM      5  C5  LG1 d5015      44.911  36.705  29.975  0.00  0.00     0.013 C 
ATOM      6  C6  LG1 d5015      44.674  35.526  30.986  0.00  0.00     0.006 C 
ATOM      7  C9  LG1 d5015      41.937  36.885  30.991  0.00  0.00     0.016 C 
ATOM      8  C10 LG1 d5015      41.442  35.317  28.987  0.00  0.00     0.011 C 
ATOM      9  C11 LG1 d5015      40.620  34.292  29.816  0.00  0.00     0.007 C 
ATOM     10  C12 LG1 d5015      41.517  33.203  30.459  0.00  0.00     0.002 C 
ATOM     11  C13 LG1 d5015      40.667  32.165  31.281  0.00  0.00    -0.016 C 
ATOM     12  C14 LG1 d5015      41.649  31.101  31.919  0.00  0.00    -0.068 C 
ATOM     13  C15 LG1 d5015      41.449  29.796  31.871  0.00  0.00     0.053 C 
ATOM     14  C16 LG1 d5015      40.225  29.232  31.324  0.00  0.00     0.149 C 
ATOM     15  C17 LG1 d5015      39.091  30.151  30.878  0.00  0.00     0.084 C 
ATOM     16  C18 LG1 d5015      39.685  31.462  30.305  0.00  0.00     0.022 C 
ATOM     17  O2  LG1 d5015      40.062  27.999  31.283  0.00  0.00    -0.293 OA
ATOM     18  C19 LG1 d5015      42.911  31.622  32.598  0.00  0.00     0.035 C 
ATOM     19  C20 LG1 d5015      43.620  32.705  31.764  0.00  0.00     0.010 C 
ATOM     20  C21 LG1 d5015      39.893  32.832  32.482  0.00  0.00     0.020 C 
ENDROOT
BRANCH   4  21
ATOM     21  C7  LG1 d5015      43.219  38.203  28.646  0.00  0.00     0.128 C 
ATOM     22  O1  LG1 d5015      42.383  38.362  27.783  0.00  0.00    -0.298 OA
ATOM     23  C8  LG1 d5015      43.850  39.379  29.308  0.00  0.00     0.091 C 
ENDBRANCH   4  21
TORSDOF 1
ENDMDL
