REMARK INTER + INTRA:          -6.941
REMARK INTER:                  -6.737
REMARK INTRA:                  -0.204
REMARK UNBOUND:                -0.197
REMARK  1 active torsions:
REMARK  status: ('A' for Active; 'I' for Inactive)
REMARK    1  A    between atoms: C7_7  and  C4_4 
ROOT
ATOM      1  C1  LG1 d5015      41.724  36.631  30.429  0.00  0.00    -0.004 C 
ATOM      2  C2  LG1 d5015      40.494  35.728  30.566  0.00  0.00    -0.001 C 
ATOM      3  C3  LG1 d5015      40.864  34.203  30.701  0.00  0.00    -0.030 C 
ATOM      4  C4  LG1 d5015      39.421  33.630  30.900  0.00  0.00     0.063 C 
ATOM      5  C5  LG1 d5015      38.693  34.672  31.821  0.00  0.00     0.013 C 
ATOM      6  C6  LG1 d5015      39.539  35.995  31.754  0.00  0.00     0.006 C 
ATOM      7  C9  LG1 d5015      41.738  33.884  31.965  0.00  0.00     0.016 C 
ATOM      8  C10 LG1 d5015      41.565  33.819  29.380  0.00  0.00     0.011 C 
ATOM      9  C11 LG1 d5015      42.824  34.698  29.136  0.00  0.00     0.007 C 
ATOM     10  C12 LG1 d5015      42.490  36.212  29.131  0.00  0.00     0.002 C 
ATOM     11  C13 LG1 d5015      43.772  37.085  28.868  0.00  0.00    -0.016 C 
ATOM     12  C14 LG1 d5015      43.357  38.612  28.895  0.00  0.00    -0.068 C 
ATOM     13  C15 LG1 d5015      43.729  39.490  27.981  0.00  0.00     0.053 C 
ATOM     14  C16 LG1 d5015      44.669  39.141  26.926  0.00  0.00     0.149 C 
ATOM     15  C17 LG1 d5015      45.325  37.764  26.912  0.00  0.00     0.084 C 
ATOM     16  C18 LG1 d5015      44.334  36.713  27.469  0.00  0.00     0.022 C 
ATOM     17  O2  LG1 d5015      44.999  39.984  26.073  0.00  0.00    -0.293 OA
ATOM     18  C19 LG1 d5015      42.448  39.078  30.027  0.00  0.00     0.035 C 
ATOM     19  C20 LG1 d5015      41.277  38.107  30.276  0.00  0.00     0.010 C 
ATOM     20  C21 LG1 d5015      44.868  36.904  29.986  0.00  0.00     0.020 C 
ENDROOT
BRANCH   4  21
ATOM     21  C7  LG1 d5015      39.365  32.174  31.393  0.00  0.00     0.128 C 
ATOM     22  O1  LG1 d5015      39.741  31.272  30.674  0.00  0.00    -0.298 OA
ATOM     23  C8  LG1 d5015      38.855  31.882  32.761  0.00  0.00     0.091 C 
ENDBRANCH   4  21
TORSDOF 1
ENDMDL
