REMARK INTER + INTRA:          -7.483
REMARK INTER:                  -7.366
REMARK INTRA:                  -0.117
REMARK UNBOUND:                -0.195
REMARK  1 active torsions:
REMARK  status: ('A' for Active; 'I' for Inactive)
REMARK    1  A    between atoms: C7_7  and  C4_4 
ROOT
ATOM      1  C1  LG1 d5015      41.546  34.913  31.000  0.00  0.00    -0.004 C 
ATOM      2  C2  LG1 d5015      40.597  33.714  31.098  0.00  0.00    -0.001 C 
ATOM      3  C3  LG1 d5015      41.231  32.489  31.856  0.00  0.00    -0.030 C 
ATOM      4  C4  LG1 d5015      39.991  31.534  31.834  0.00  0.00     0.063 C 
ATOM      5  C5  LG1 d5015      38.756  32.467  32.090  0.00  0.00     0.013 C 
ATOM      6  C6  LG1 d5015      39.236  33.935  31.801  0.00  0.00     0.006 C 
ATOM      7  C9  LG1 d5015      41.624  32.811  33.341  0.00  0.00     0.016 C 
ATOM      8  C10 LG1 d5015      42.440  32.044  31.003  0.00  0.00     0.011 C 
ATOM      9  C11 LG1 d5015      43.460  33.203  30.827  0.00  0.00     0.007 C 
ATOM     10  C12 LG1 d5015      42.812  34.464  30.198  0.00  0.00     0.002 C 
ATOM     11  C13 LG1 d5015      43.862  35.621  30.012  0.00  0.00    -0.016 C 
ATOM     12  C14 LG1 d5015      43.125  36.874  29.385  0.00  0.00    -0.068 C 
ATOM     13  C15 LG1 d5015      43.596  37.565  28.363  0.00  0.00     0.053 C 
ATOM     14  C16 LG1 d5015      44.912  37.299  27.803  0.00  0.00     0.149 C 
ATOM     15  C17 LG1 d5015      45.826  36.267  28.455  0.00  0.00     0.084 C 
ATOM     16  C18 LG1 d5015      44.970  35.120  29.047  0.00  0.00     0.022 C 
ATOM     17  O2  LG1 d5015      45.330  37.960  26.836  0.00  0.00    -0.293 OA
ATOM     18  C19 LG1 d5015      41.781  37.276  29.982  0.00  0.00     0.035 C 
ATOM     19  C20 LG1 d5015      40.860  36.064  30.220  0.00  0.00     0.010 C 
ATOM     20  C21 LG1 d5015      44.477  36.106  31.380  0.00  0.00     0.020 C 
ENDROOT
BRANCH   4  21
ATOM     21  C7  LG1 d5015      40.095  30.318  32.770  0.00  0.00     0.128 C 
ATOM     22  O1  LG1 d5015      39.599  30.355  33.876  0.00  0.00    -0.298 OA
ATOM     23  C8  LG1 d5015      40.803  29.093  32.305  0.00  0.00     0.091 C 
ENDBRANCH   4  21
TORSDOF 1
ENDMDL
