REMARK INTER + INTRA:          -7.810
REMARK INTER:                  -7.992
REMARK INTRA:                   0.182
REMARK UNBOUND:                -0.197
REMARK  1 active torsions:
REMARK  status: ('A' for Active; 'I' for Inactive)
REMARK    1  A    between atoms: C7_7  and  C4_4 
ROOT
ATOM      1  C1  LG1 d5015      43.225  34.250  30.658  0.00  0.00    -0.004 C 
ATOM      2  C2  LG1 d5015      42.334  33.526  31.674  0.00  0.00    -0.001 C 
ATOM      3  C3  LG1 d5015      40.902  33.195  31.110  0.00  0.00    -0.030 C 
ATOM      4  C4  LG1 d5015      40.339  32.415  32.344  0.00  0.00     0.063 C 
ATOM      5  C5  LG1 d5015      41.543  31.554  32.864  0.00  0.00     0.013 C 
ATOM      6  C6  LG1 d5015      42.843  32.176  32.237  0.00  0.00     0.006 C 
ATOM      7  C9  LG1 d5015      40.929  32.251  29.856  0.00  0.00     0.016 C 
ATOM      8  C10 LG1 d5015      40.239  34.559  30.814  0.00  0.00     0.011 C 
ATOM      9  C11 LG1 d5015      41.080  35.385  29.802  0.00  0.00     0.007 C 
ATOM     10  C12 LG1 d5015      42.535  35.605  30.291  0.00  0.00     0.002 C 
ATOM     11  C13 LG1 d5015      43.368  36.456  29.262  0.00  0.00    -0.016 C 
ATOM     12  C14 LG1 d5015      44.840  36.623  29.819  0.00  0.00    -0.068 C 
ATOM     13  C15 LG1 d5015      45.486  37.774  29.851  0.00  0.00     0.053 C 
ATOM     14  C16 LG1 d5015      44.930  38.978  29.252  0.00  0.00     0.149 C 
ATOM     15  C17 LG1 d5015      43.615  38.911  28.480  0.00  0.00     0.084 C 
ATOM     16  C18 LG1 d5015      42.692  37.847  29.124  0.00  0.00     0.022 C 
ATOM     17  O2  LG1 d5015      45.555  40.052  29.301  0.00  0.00    -0.293 OA
ATOM     18  C19 LG1 d5015      45.529  35.383  30.378  0.00  0.00     0.035 C 
ATOM     19  C20 LG1 d5015      44.603  34.561  31.295  0.00  0.00     0.010 C 
ATOM     20  C21 LG1 d5015      43.502  35.748  27.859  0.00  0.00     0.020 C 
ENDROOT
BRANCH   4  21
ATOM     21  C7  LG1 d5015      39.044  31.631  32.078  0.00  0.00     0.128 C 
ATOM     22  O1  LG1 d5015      37.974  32.086  32.423  0.00  0.00    -0.298 OA
ATOM     23  C8  LG1 d5015      39.113  30.313  31.387  0.00  0.00     0.091 C 
ENDBRANCH   4  21
TORSDOF 1
ENDMDL
