REMARK INTER + INTRA:          -7.463
REMARK INTER:                  -7.332
REMARK INTRA:                  -0.131
REMARK UNBOUND:                -0.201
REMARK  1 active torsions:
REMARK  status: ('A' for Active; 'I' for Inactive)
REMARK    1  A    between atoms: C7_7  and  C4_4 
ROOT
ATOM      1  C1  LG1 d5015      41.536  34.899  31.016  0.00  0.00    -0.004 C 
ATOM      2  C2  LG1 d5015      40.586  33.700  31.112  0.00  0.00    -0.001 C 
ATOM      3  C3  LG1 d5015      41.217  32.477  31.877  0.00  0.00    -0.030 C 
ATOM      4  C4  LG1 d5015      39.978  31.522  31.851  0.00  0.00     0.063 C 
ATOM      5  C5  LG1 d5015      38.740  32.455  32.098  0.00  0.00     0.013 C 
ATOM      6  C6  LG1 d5015      39.221  33.922  31.807  0.00  0.00     0.006 C 
ATOM      7  C9  LG1 d5015      41.602  32.803  33.363  0.00  0.00     0.016 C 
ATOM      8  C10 LG1 d5015      42.431  32.030  31.032  0.00  0.00     0.011 C 
ATOM      9  C11 LG1 d5015      43.451  33.189  30.858  0.00  0.00     0.007 C 
ATOM     10  C12 LG1 d5015      42.806  34.448  30.222  0.00  0.00     0.002 C 
ATOM     11  C13 LG1 d5015      43.856  35.605  30.039  0.00  0.00    -0.016 C 
ATOM     12  C14 LG1 d5015      43.123  36.856  29.405  0.00  0.00    -0.068 C 
ATOM     13  C15 LG1 d5015      43.599  37.545  28.383  0.00  0.00     0.053 C 
ATOM     14  C16 LG1 d5015      44.918  37.278  27.831  0.00  0.00     0.149 C 
ATOM     15  C17 LG1 d5015      45.829  36.247  28.491  0.00  0.00     0.084 C 
ATOM     16  C18 LG1 d5015      44.970  35.102  29.082  0.00  0.00     0.022 C 
ATOM     17  O2  LG1 d5015      45.342  37.936  26.865  0.00  0.00    -0.293 OA
ATOM     18  C19 LG1 d5015      41.776  37.259  29.993  0.00  0.00     0.035 C 
ATOM     19  C20 LG1 d5015      40.853  36.048  30.230  0.00  0.00     0.010 C 
ATOM     20  C21 LG1 d5015      44.463  36.094  31.409  0.00  0.00     0.020 C 
ENDROOT
BRANCH   4  21
ATOM     21  C7  LG1 d5015      40.077  30.308  32.791  0.00  0.00     0.128 C 
ATOM     22  O1  LG1 d5015      39.547  30.337  33.882  0.00  0.00    -0.298 OA
ATOM     23  C8  LG1 d5015      40.821  29.096  32.349  0.00  0.00     0.091 C 
ENDBRANCH   4  21
TORSDOF 1
ENDMDL
