REMARK INTER + INTRA:          -7.800
REMARK INTER:                  -8.009
REMARK INTRA:                   0.208
REMARK UNBOUND:                -0.199
REMARK  1 active torsions:
REMARK  status: ('A' for Active; 'I' for Inactive)
REMARK    1  A    between atoms: C7_7  and  C4_4 
ROOT
ATOM      1  C1  LG1 d5015      43.228  34.236  30.603  0.00  0.00    -0.004 C 
ATOM      2  C2  LG1 d5015      42.353  33.501  31.624  0.00  0.00    -0.001 C 
ATOM      3  C3  LG1 d5015      40.901  33.209  31.090  0.00  0.00    -0.030 C 
ATOM      4  C4  LG1 d5015      40.357  32.407  32.319  0.00  0.00     0.063 C 
ATOM      5  C5  LG1 d5015      41.560  31.512  32.784  0.00  0.00     0.013 C 
ATOM      6  C6  LG1 d5015      42.853  32.129  32.138  0.00  0.00     0.006 C 
ATOM      7  C9  LG1 d5015      40.878  32.298  29.812  0.00  0.00     0.016 C 
ATOM      8  C10 LG1 d5015      40.254  34.591  30.847  0.00  0.00     0.011 C 
ATOM      9  C11 LG1 d5015      41.082  35.429  29.834  0.00  0.00     0.007 C 
ATOM     10  C12 LG1 d5015      42.553  35.612  30.290  0.00  0.00     0.002 C 
ATOM     11  C13 LG1 d5015      43.373  36.476  29.261  0.00  0.00    -0.016 C 
ATOM     12  C14 LG1 d5015      44.861  36.604  29.783  0.00  0.00    -0.068 C 
ATOM     13  C15 LG1 d5015      45.528  37.743  29.827  0.00  0.00     0.053 C 
ATOM     14  C16 LG1 d5015      44.977  38.971  29.274  0.00  0.00     0.149 C 
ATOM     15  C17 LG1 d5015      43.642  38.946  28.536  0.00  0.00     0.084 C 
ATOM     16  C18 LG1 d5015      42.718  37.881  29.177  0.00  0.00     0.022 C 
ATOM     17  O2  LG1 d5015      45.622  40.033  29.334  0.00  0.00    -0.293 OA
ATOM     18  C19 LG1 d5015      45.544  35.338  30.291  0.00  0.00     0.035 C 
ATOM     19  C20 LG1 d5015      44.628  34.508  31.211  0.00  0.00     0.010 C 
ATOM     20  C21 LG1 d5015      43.458  35.803  27.838  0.00  0.00     0.020 C 
ENDROOT
BRANCH   4  21
ATOM     21  C7  LG1 d5015      39.042  31.651  32.068  0.00  0.00     0.128 C 
ATOM     22  O1  LG1 d5015      37.993  32.102  32.477  0.00  0.00    -0.298 OA
ATOM     23  C8  LG1 d5015      39.065  30.368  31.311  0.00  0.00     0.091 C 
ENDBRANCH   4  21
TORSDOF 1
ENDMDL
