REMARK INTER + INTRA:          -6.725
REMARK INTER:                  -6.525
REMARK INTRA:                  -0.199
REMARK UNBOUND:                -0.199
REMARK  1 active torsions:
REMARK  status: ('A' for Active; 'I' for Inactive)
REMARK    1  A    between atoms: C7_7  and  C4_4 
ROOT
ATOM      1  C1  LG1 d5015      42.656  33.840  31.298  0.00  0.00    -0.004 C 
ATOM      2  C2  LG1 d5015      43.416  34.808  30.385  0.00  0.00    -0.001 C 
ATOM      3  C3  LG1 d5015      42.519  35.992  29.863  0.00  0.00    -0.030 C 
ATOM      4  C4  LG1 d5015      43.613  36.782  29.071  0.00  0.00     0.063 C 
ATOM      5  C5  LG1 d5015      44.904  36.687  29.957  0.00  0.00     0.013 C 
ATOM      6  C6  LG1 d5015      44.669  35.506  30.967  0.00  0.00     0.006 C 
ATOM      7  C9  LG1 d5015      41.946  36.893  31.014  0.00  0.00     0.016 C 
ATOM      8  C10 LG1 d5015      41.409  35.338  29.011  0.00  0.00     0.011 C 
ATOM      9  C11 LG1 d5015      40.587  34.317  29.846  0.00  0.00     0.007 C 
ATOM     10  C12 LG1 d5015      41.482  33.217  30.473  0.00  0.00     0.002 C 
ATOM     11  C13 LG1 d5015      40.632  32.184  31.301  0.00  0.00    -0.016 C 
ATOM     12  C14 LG1 d5015      41.612  31.107  31.922  0.00  0.00    -0.068 C 
ATOM     13  C15 LG1 d5015      41.399  29.805  31.870  0.00  0.00     0.053 C 
ATOM     14  C16 LG1 d5015      40.162  29.255  31.337  0.00  0.00     0.149 C 
ATOM     15  C17 LG1 d5015      39.032  30.187  30.911  0.00  0.00     0.084 C 
ATOM     16  C18 LG1 d5015      39.631  31.495  30.336  0.00  0.00     0.022 C 
ATOM     17  O2  LG1 d5015      39.987  28.024  31.294  0.00  0.00    -0.293 OA
ATOM     18  C19 LG1 d5015      42.889  31.612  32.586  0.00  0.00     0.035 C 
ATOM     19  C20 LG1 d5015      43.598  32.693  31.746  0.00  0.00     0.010 C 
ATOM     20  C21 LG1 d5015      39.882  32.853  32.516  0.00  0.00     0.020 C 
ENDROOT
BRANCH   4  21
ATOM     21  C7  LG1 d5015      43.209  38.207  28.658  0.00  0.00     0.128 C 
ATOM     22  O1  LG1 d5015      42.366  38.379  27.804  0.00  0.00    -0.298 OA
ATOM     23  C8  LG1 d5015      43.856  39.375  29.320  0.00  0.00     0.091 C 
ENDBRANCH   4  21
TORSDOF 1
ENDMDL
