REMARK INTER + INTRA:          -7.817
REMARK INTER:                  -8.019
REMARK INTRA:                   0.202
REMARK UNBOUND:                -0.201
REMARK  1 active torsions:
REMARK  status: ('A' for Active; 'I' for Inactive)
REMARK    1  A    between atoms: C7_7  and  C4_4 
ROOT
ATOM      1  C1  LG1 d5015      43.247  34.229  30.635  0.00  0.00    -0.004 C 
ATOM      2  C2  LG1 d5015      42.367  33.476  31.638  0.00  0.00    -0.001 C 
ATOM      3  C3  LG1 d5015      40.923  33.179  31.086  0.00  0.00    -0.030 C 
ATOM      4  C4  LG1 d5015      40.373  32.359  32.300  0.00  0.00     0.063 C 
ATOM      5  C5  LG1 d5015      41.577  31.468  32.767  0.00  0.00     0.013 C 
ATOM      6  C6  LG1 d5015      42.872  32.103  32.143  0.00  0.00     0.006 C 
ATOM      7  C9  LG1 d5015      40.920  32.282  29.798  0.00  0.00     0.016 C 
ATOM      8  C10 LG1 d5015      40.267  34.558  30.852  0.00  0.00     0.011 C 
ATOM      9  C11 LG1 d5015      41.100  35.414  29.857  0.00  0.00     0.007 C 
ATOM     10  C12 LG1 d5015      42.564  35.604  30.330  0.00  0.00     0.002 C 
ATOM     11  C13 LG1 d5015      43.388  36.485  29.319  0.00  0.00    -0.016 C 
ATOM     12  C14 LG1 d5015      44.870  36.618  29.857  0.00  0.00    -0.068 C 
ATOM     13  C15 LG1 d5015      45.527  37.762  29.921  0.00  0.00     0.053 C 
ATOM     14  C16 LG1 d5015      44.973  38.992  29.376  0.00  0.00     0.149 C 
ATOM     15  C17 LG1 d5015      43.645  38.965  28.624  0.00  0.00     0.084 C 
ATOM     16  C18 LG1 d5015      42.723  37.886  29.243  0.00  0.00     0.022 C 
ATOM     17  O2  LG1 d5015      45.608  40.058  29.455  0.00  0.00    -0.293 OA
ATOM     18  C19 LG1 d5015      45.557  35.352  30.359  0.00  0.00     0.035 C 
ATOM     19  C20 LG1 d5015      44.638  34.505  31.260  0.00  0.00     0.010 C 
ATOM     20  C21 LG1 d5015      43.493  35.828  27.889  0.00  0.00     0.020 C 
ENDROOT
BRANCH   4  21
ATOM     21  C7  LG1 d5015      39.066  31.596  32.027  0.00  0.00     0.128 C 
ATOM     22  O1  LG1 d5015      38.008  32.039  32.422  0.00  0.00    -0.298 OA
ATOM     23  C8  LG1 d5015      39.108  30.316  31.267  0.00  0.00     0.091 C 
ENDBRANCH   4  21
TORSDOF 1
ENDMDL
