REMARK INTER + INTRA:          -6.762
REMARK INTER:                  -6.566
REMARK INTRA:                  -0.195
REMARK UNBOUND:                -0.195
REMARK  1 active torsions:
REMARK  status: ('A' for Active; 'I' for Inactive)
REMARK    1  A    between atoms: C7_7  and  C4_4 
ROOT
ATOM      1  C1  LG1 d5015      42.666  33.860  31.306  0.00  0.00    -0.004 C 
ATOM      2  C2  LG1 d5015      43.422  34.839  30.401  0.00  0.00    -0.001 C 
ATOM      3  C3  LG1 d5015      42.514  36.009  29.867  0.00  0.00    -0.030 C 
ATOM      4  C4  LG1 d5015      43.606  36.815  29.088  0.00  0.00     0.063 C 
ATOM      5  C5  LG1 d5015      44.887  36.741  29.991  0.00  0.00     0.013 C 
ATOM      6  C6  LG1 d5015      44.657  35.557  30.999  0.00  0.00     0.006 C 
ATOM      7  C9  LG1 d5015      41.912  36.901  31.009  0.00  0.00     0.016 C 
ATOM      8  C10 LG1 d5015      41.425  35.337  29.000  0.00  0.00     0.011 C 
ATOM      9  C11 LG1 d5015      40.609  34.304  29.826  0.00  0.00     0.007 C 
ATOM     10  C12 LG1 d5015      41.513  33.218  30.466  0.00  0.00     0.002 C 
ATOM     11  C13 LG1 d5015      40.668  32.173  31.284  0.00  0.00    -0.016 C 
ATOM     12  C14 LG1 d5015      41.657  31.112  31.919  0.00  0.00    -0.068 C 
ATOM     13  C15 LG1 d5015      41.464  29.807  31.866  0.00  0.00     0.053 C 
ATOM     14  C16 LG1 d5015      40.243  29.237  31.318  0.00  0.00     0.149 C 
ATOM     15  C17 LG1 d5015      39.105  30.151  30.875  0.00  0.00     0.084 C 
ATOM     16  C18 LG1 d5015      39.691  31.467  30.306  0.00  0.00     0.022 C 
ATOM     17  O2  LG1 d5015      40.088  28.004  31.273  0.00  0.00    -0.293 OA
ATOM     18  C19 LG1 d5015      42.916  31.638  32.599  0.00  0.00     0.035 C 
ATOM     19  C20 LG1 d5015      43.619  32.729  31.768  0.00  0.00     0.010 C 
ATOM     20  C21 LG1 d5015      39.891  32.831  32.488  0.00  0.00     0.020 C 
ENDROOT
BRANCH   4  21
ATOM     21  C7  LG1 d5015      43.186  38.234  28.668  0.00  0.00     0.128 C 
ATOM     22  O1  LG1 d5015      42.370  38.392  27.784  0.00  0.00    -0.298 OA
ATOM     23  C8  LG1 d5015      43.781  39.410  29.359  0.00  0.00     0.091 C 
ENDBRANCH   4  21
TORSDOF 1
ENDMDL
