REMARK INTER + INTRA:          -8.971
REMARK INTER:                  -8.972
REMARK INTRA:                   0.001
REMARK UNBOUND:                -0.197
REMARK  1 active torsions:
REMARK  status: ('A' for Active; 'I' for Inactive)
REMARK    1  A    between atoms: C7_7  and  C4_4 
ROOT
ATOM      1  C1  LG1 d5015      41.440  35.314  30.204  0.00  0.00    -0.004 C 
ATOM      2  C2  LG1 d5015      42.263  36.606  30.260  0.00  0.00    -0.001 C 
ATOM      3  C3  LG1 d5015      43.781  36.383  29.907  0.00  0.00    -0.030 C 
ATOM      4  C4  LG1 d5015      44.259  37.872  29.980  0.00  0.00     0.063 C 
ATOM      5  C5  LG1 d5015      43.092  38.704  29.343  0.00  0.00     0.013 C 
ATOM      6  C6  LG1 d5015      41.825  37.773  29.342  0.00  0.00     0.006 C 
ATOM      7  C9  LG1 d5015      44.008  35.826  28.457  0.00  0.00     0.016 C 
ATOM      8  C10 LG1 d5015      44.336  35.443  31.000  0.00  0.00     0.011 C 
ATOM      9  C11 LG1 d5015      43.551  34.102  31.039  0.00  0.00     0.007 C 
ATOM     10  C12 LG1 d5015      42.031  34.319  31.258  0.00  0.00     0.002 C 
ATOM     11  C13 LG1 d5015      41.254  32.952  31.310  0.00  0.00    -0.016 C 
ATOM     12  C14 LG1 d5015      39.714  33.255  31.516  0.00  0.00    -0.068 C 
ATOM     13  C15 LG1 d5015      38.957  32.633  32.402  0.00  0.00     0.053 C 
ATOM     14  C16 LG1 d5015      39.460  31.516  33.187  0.00  0.00     0.149 C 
ATOM     15  C17 LG1 d5015      40.862  30.970  32.929  0.00  0.00     0.084 C 
ATOM     16  C18 LG1 d5015      41.798  32.131  32.510  0.00  0.00     0.022 C 
ATOM     17  O2  LG1 d5015      38.730  30.951  34.020  0.00  0.00    -0.293 OA
ATOM     18  C19 LG1 d5015      39.088  34.350  30.661  0.00  0.00     0.035 C 
ATOM     19  C20 LG1 d5015      39.969  35.612  30.588  0.00  0.00     0.010 C 
ATOM     20  C21 LG1 d5015      41.370  32.138  29.965  0.00  0.00     0.020 C 
ENDROOT
BRANCH   4  21
ATOM     21  C7  LG1 d5015      45.650  38.135  29.379  0.00  0.00     0.128 C 
ATOM     22  O1  LG1 d5015      45.776  38.312  28.187  0.00  0.00    -0.298 OA
ATOM     23  C8  LG1 d5015      46.839  38.178  30.276  0.00  0.00     0.091 C 
ENDBRANCH   4  21
TORSDOF 1
ENDMDL
