MODEL 1
REMARK VINA RESULT:    -8.289      0.000      0.000
REMARK INTER + INTRA:          -8.971
REMARK INTER:                  -8.972
REMARK INTRA:                   0.001
REMARK UNBOUND:                -0.197
REMARK  1 active torsions:
REMARK  status: ('A' for Active; 'I' for Inactive)
REMARK    1  A    between atoms: C7_7  and  C4_4 
ROOT
ATOM      1  C1  LG1 d5015      41.440  35.314  30.204  0.00  0.00    -0.004 C 
ATOM      2  C2  LG1 d5015      42.263  36.606  30.260  0.00  0.00    -0.001 C 
ATOM      3  C3  LG1 d5015      43.781  36.383  29.907  0.00  0.00    -0.030 C 
ATOM      4  C4  LG1 d5015      44.259  37.872  29.980  0.00  0.00     0.063 C 
ATOM      5  C5  LG1 d5015      43.092  38.704  29.343  0.00  0.00     0.013 C 
ATOM      6  C6  LG1 d5015      41.825  37.773  29.342  0.00  0.00     0.006 C 
ATOM      7  C9  LG1 d5015      44.008  35.826  28.457  0.00  0.00     0.016 C 
ATOM      8  C10 LG1 d5015      44.336  35.443  31.000  0.00  0.00     0.011 C 
ATOM      9  C11 LG1 d5015      43.551  34.102  31.039  0.00  0.00     0.007 C 
ATOM     10  C12 LG1 d5015      42.031  34.319  31.258  0.00  0.00     0.002 C 
ATOM     11  C13 LG1 d5015      41.254  32.952  31.310  0.00  0.00    -0.016 C 
ATOM     12  C14 LG1 d5015      39.714  33.255  31.516  0.00  0.00    -0.068 C 
ATOM     13  C15 LG1 d5015      38.957  32.633  32.402  0.00  0.00     0.053 C 
ATOM     14  C16 LG1 d5015      39.460  31.516  33.187  0.00  0.00     0.149 C 
ATOM     15  C17 LG1 d5015      40.862  30.970  32.929  0.00  0.00     0.084 C 
ATOM     16  C18 LG1 d5015      41.798  32.131  32.510  0.00  0.00     0.022 C 
ATOM     17  O2  LG1 d5015      38.730  30.951  34.020  0.00  0.00    -0.293 OA
ATOM     18  C19 LG1 d5015      39.088  34.350  30.661  0.00  0.00     0.035 C 
ATOM     19  C20 LG1 d5015      39.969  35.612  30.588  0.00  0.00     0.010 C 
ATOM     20  C21 LG1 d5015      41.370  32.138  29.965  0.00  0.00     0.020 C 
ENDROOT
BRANCH   4  21
ATOM     21  C7  LG1 d5015      45.650  38.135  29.379  0.00  0.00     0.128 C 
ATOM     22  O1  LG1 d5015      45.776  38.312  28.187  0.00  0.00    -0.298 OA
ATOM     23  C8  LG1 d5015      46.839  38.178  30.276  0.00  0.00     0.091 C 
ENDBRANCH   4  21
TORSDOF 1
ENDMDL
MODEL 2
REMARK VINA RESULT:    -7.192      1.161      7.204
REMARK INTER + INTRA:          -7.810
REMARK INTER:                  -7.992
REMARK INTRA:                   0.182
REMARK UNBOUND:                -0.197
REMARK  1 active torsions:
REMARK  status: ('A' for Active; 'I' for Inactive)
REMARK    1  A    between atoms: C7_7  and  C4_4 
ROOT
ATOM      1  C1  LG1 d5015      43.225  34.250  30.658  0.00  0.00    -0.004 C 
ATOM      2  C2  LG1 d5015      42.334  33.526  31.674  0.00  0.00    -0.001 C 
ATOM      3  C3  LG1 d5015      40.902  33.195  31.110  0.00  0.00    -0.030 C 
ATOM      4  C4  LG1 d5015      40.339  32.415  32.344  0.00  0.00     0.063 C 
ATOM      5  C5  LG1 d5015      41.543  31.554  32.864  0.00  0.00     0.013 C 
ATOM      6  C6  LG1 d5015      42.843  32.176  32.237  0.00  0.00     0.006 C 
ATOM      7  C9  LG1 d5015      40.929  32.251  29.856  0.00  0.00     0.016 C 
ATOM      8  C10 LG1 d5015      40.239  34.559  30.814  0.00  0.00     0.011 C 
ATOM      9  C11 LG1 d5015      41.080  35.385  29.802  0.00  0.00     0.007 C 
ATOM     10  C12 LG1 d5015      42.535  35.605  30.291  0.00  0.00     0.002 C 
ATOM     11  C13 LG1 d5015      43.368  36.456  29.262  0.00  0.00    -0.016 C 
ATOM     12  C14 LG1 d5015      44.840  36.623  29.819  0.00  0.00    -0.068 C 
ATOM     13  C15 LG1 d5015      45.486  37.774  29.851  0.00  0.00     0.053 C 
ATOM     14  C16 LG1 d5015      44.930  38.978  29.252  0.00  0.00     0.149 C 
ATOM     15  C17 LG1 d5015      43.615  38.911  28.480  0.00  0.00     0.084 C 
ATOM     16  C18 LG1 d5015      42.692  37.847  29.124  0.00  0.00     0.022 C 
ATOM     17  O2  LG1 d5015      45.555  40.052  29.301  0.00  0.00    -0.293 OA
ATOM     18  C19 LG1 d5015      45.529  35.383  30.378  0.00  0.00     0.035 C 
ATOM     19  C20 LG1 d5015      44.603  34.561  31.295  0.00  0.00     0.010 C 
ATOM     20  C21 LG1 d5015      43.502  35.748  27.859  0.00  0.00     0.020 C 
ENDROOT
BRANCH   4  21
ATOM     21  C7  LG1 d5015      39.044  31.631  32.078  0.00  0.00     0.128 C 
ATOM     22  O1  LG1 d5015      37.974  32.086  32.423  0.00  0.00    -0.298 OA
ATOM     23  C8  LG1 d5015      39.113  30.313  31.387  0.00  0.00     0.091 C 
ENDBRANCH   4  21
TORSDOF 1
ENDMDL
MODEL 3
REMARK VINA RESULT:    -6.874      1.267      6.922
REMARK INTER + INTRA:          -7.473
REMARK INTER:                  -7.343
REMARK INTRA:                  -0.131
REMARK UNBOUND:                -0.197
REMARK  1 active torsions:
REMARK  status: ('A' for Active; 'I' for Inactive)
REMARK    1  A    between atoms: C7_7  and  C4_4 
ROOT
ATOM      1  C1  LG1 d5015      41.549  34.894  31.021  0.00  0.00    -0.004 C 
ATOM      2  C2  LG1 d5015      40.601  33.693  31.110  0.00  0.00    -0.001 C 
ATOM      3  C3  LG1 d5015      41.239  32.460  31.852  0.00  0.00    -0.030 C 
ATOM      4  C4  LG1 d5015      40.000  31.504  31.825  0.00  0.00     0.063 C 
ATOM      5  C5  LG1 d5015      38.765  32.432  32.095  0.00  0.00     0.013 C 
ATOM      6  C6  LG1 d5015      39.242  33.904  31.821  0.00  0.00     0.006 C 
ATOM      7  C9  LG1 d5015      41.638  32.766  33.339  0.00  0.00     0.016 C 
ATOM      8  C10 LG1 d5015      42.445  32.025  30.990  0.00  0.00     0.011 C 
ATOM      9  C11 LG1 d5015      43.463  33.187  30.822  0.00  0.00     0.007 C 
ATOM     10  C12 LG1 d5015      42.812  34.454  30.209  0.00  0.00     0.002 C 
ATOM     11  C13 LG1 d5015      43.860  35.614  30.032  0.00  0.00    -0.016 C 
ATOM     12  C14 LG1 d5015      43.120  36.873  29.422  0.00  0.00    -0.068 C 
ATOM     13  C15 LG1 d5015      43.586  37.576  28.406  0.00  0.00     0.053 C 
ATOM     14  C16 LG1 d5015      44.900  37.318  27.838  0.00  0.00     0.149 C 
ATOM     15  C17 LG1 d5015      45.818  36.279  28.475  0.00  0.00     0.084 C 
ATOM     16  C18 LG1 d5015      44.965  35.125  29.058  0.00  0.00     0.022 C 
ATOM     17  O2  LG1 d5015      45.314  37.990  26.877  0.00  0.00    -0.293 OA
ATOM     18  C19 LG1 d5015      41.778  37.268  30.029  0.00  0.00     0.035 C 
ATOM     19  C20 LG1 d5015      40.859  36.052  30.257  0.00  0.00     0.010 C 
ATOM     20  C21 LG1 d5015      44.480  36.085  31.404  0.00  0.00     0.020 C 
ENDROOT
BRANCH   4  21
ATOM     21  C7  LG1 d5015      40.109  30.278  32.747  0.00  0.00     0.128 C 
ATOM     22  O1  LG1 d5015      39.589  30.291  33.842  0.00  0.00    -0.298 OA
ATOM     23  C8  LG1 d5015      40.849  29.072  32.280  0.00  0.00     0.091 C 
ENDBRANCH   4  21
TORSDOF 1
ENDMDL
MODEL 4
REMARK VINA RESULT:    -6.371      1.632      7.083
REMARK INTER + INTRA:          -6.941
REMARK INTER:                  -6.737
REMARK INTRA:                  -0.204
REMARK UNBOUND:                -0.197
REMARK  1 active torsions:
REMARK  status: ('A' for Active; 'I' for Inactive)
REMARK    1  A    between atoms: C7_7  and  C4_4 
ROOT
ATOM      1  C1  LG1 d5015      41.724  36.631  30.429  0.00  0.00    -0.004 C 
ATOM      2  C2  LG1 d5015      40.494  35.728  30.566  0.00  0.00    -0.001 C 
ATOM      3  C3  LG1 d5015      40.864  34.203  30.701  0.00  0.00    -0.030 C 
ATOM      4  C4  LG1 d5015      39.421  33.630  30.900  0.00  0.00     0.063 C 
ATOM      5  C5  LG1 d5015      38.693  34.672  31.821  0.00  0.00     0.013 C 
ATOM      6  C6  LG1 d5015      39.539  35.995  31.754  0.00  0.00     0.006 C 
ATOM      7  C9  LG1 d5015      41.738  33.884  31.965  0.00  0.00     0.016 C 
ATOM      8  C10 LG1 d5015      41.565  33.819  29.380  0.00  0.00     0.011 C 
ATOM      9  C11 LG1 d5015      42.824  34.698  29.136  0.00  0.00     0.007 C 
ATOM     10  C12 LG1 d5015      42.490  36.212  29.131  0.00  0.00     0.002 C 
ATOM     11  C13 LG1 d5015      43.772  37.085  28.868  0.00  0.00    -0.016 C 
ATOM     12  C14 LG1 d5015      43.357  38.612  28.895  0.00  0.00    -0.068 C 
ATOM     13  C15 LG1 d5015      43.729  39.490  27.981  0.00  0.00     0.053 C 
ATOM     14  C16 LG1 d5015      44.669  39.141  26.926  0.00  0.00     0.149 C 
ATOM     15  C17 LG1 d5015      45.325  37.764  26.912  0.00  0.00     0.084 C 
ATOM     16  C18 LG1 d5015      44.334  36.713  27.469  0.00  0.00     0.022 C 
ATOM     17  O2  LG1 d5015      44.999  39.984  26.073  0.00  0.00    -0.293 OA
ATOM     18  C19 LG1 d5015      42.448  39.078  30.027  0.00  0.00     0.035 C 
ATOM     19  C20 LG1 d5015      41.277  38.107  30.276  0.00  0.00     0.010 C 
ATOM     20  C21 LG1 d5015      44.868  36.904  29.986  0.00  0.00     0.020 C 
ENDROOT
BRANCH   4  21
ATOM     21  C7  LG1 d5015      39.365  32.174  31.393  0.00  0.00     0.128 C 
ATOM     22  O1  LG1 d5015      39.741  31.272  30.674  0.00  0.00    -0.298 OA
ATOM     23  C8  LG1 d5015      38.855  31.882  32.761  0.00  0.00     0.091 C 
ENDBRANCH   4  21
TORSDOF 1
ENDMDL
MODEL 5
REMARK VINA RESULT:    -6.198      1.716      3.160
REMARK INTER + INTRA:          -6.758
REMARK INTER:                  -6.560
REMARK INTRA:                  -0.197
REMARK UNBOUND:                -0.197
REMARK  1 active torsions:
REMARK  status: ('A' for Active; 'I' for Inactive)
REMARK    1  A    between atoms: C7_7  and  C4_4 
ROOT
ATOM      1  C1  LG1 d5015      42.669  33.870  31.287  0.00  0.00    -0.004 C 
ATOM      2  C2  LG1 d5015      43.427  34.843  30.378  0.00  0.00    -0.001 C 
ATOM      3  C3  LG1 d5015      42.521  36.010  29.836  0.00  0.00    -0.030 C 
ATOM      4  C4  LG1 d5015      43.614  36.812  29.054  0.00  0.00     0.063 C 
ATOM      5  C5  LG1 d5015      44.894  36.742  29.959  0.00  0.00     0.013 C 
ATOM      6  C6  LG1 d5015      44.661  35.564  30.973  0.00  0.00     0.006 C 
ATOM      7  C9  LG1 d5015      41.918  36.910  30.972  0.00  0.00     0.016 C 
ATOM      8  C10 LG1 d5015      41.433  35.334  28.971  0.00  0.00     0.011 C 
ATOM      9  C11 LG1 d5015      40.614  34.307  29.801  0.00  0.00     0.007 C 
ATOM     10  C12 LG1 d5015      41.517  33.224  30.448  0.00  0.00     0.002 C 
ATOM     11  C13 LG1 d5015      40.670  32.184  31.271  0.00  0.00    -0.016 C 
ATOM     12  C14 LG1 d5015      41.657  31.126  31.913  0.00  0.00    -0.068 C 
ATOM     13  C15 LG1 d5015      41.463  29.820  31.868  0.00  0.00     0.053 C 
ATOM     14  C16 LG1 d5015      40.243  29.248  31.320  0.00  0.00     0.149 C 
ATOM     15  C17 LG1 d5015      39.105  30.161  30.871  0.00  0.00     0.084 C 
ATOM     16  C18 LG1 d5015      39.693  31.473  30.296  0.00  0.00     0.022 C 
ATOM     17  O2  LG1 d5015      40.087  28.015  31.282  0.00  0.00    -0.293 OA
ATOM     18  C19 LG1 d5015      42.916  31.654  32.593  0.00  0.00     0.035 C 
ATOM     19  C20 LG1 d5015      43.621  32.740  31.756  0.00  0.00     0.010 C 
ATOM     20  C21 LG1 d5015      39.892  32.849  32.470  0.00  0.00     0.020 C 
ENDROOT
BRANCH   4  21
ATOM     21  C7  LG1 d5015      43.196  38.228  28.625  0.00  0.00     0.128 C 
ATOM     22  O1  LG1 d5015      42.369  38.381  27.752  0.00  0.00    -0.298 OA
ATOM     23  C8  LG1 d5015      43.807  39.408  29.297  0.00  0.00     0.091 C 
ENDBRANCH   4  21
TORSDOF 1
ENDMDL
