MODEL 1
REMARK VINA RESULT:    -8.281      0.000      0.000
REMARK INTER + INTRA:          -8.960
REMARK INTER:                  -8.956
REMARK INTRA:                  -0.004
REMARK UNBOUND:                -0.195
REMARK  1 active torsions:
REMARK  status: ('A' for Active; 'I' for Inactive)
REMARK    1  A    between atoms: C7_7  and  C4_4 
ROOT
ATOM      1  C1  LG1 d5015      41.430  35.314  30.214  0.00  0.00    -0.004 C 
ATOM      2  C2  LG1 d5015      42.250  36.608  30.274  0.00  0.00    -0.001 C 
ATOM      3  C3  LG1 d5015      43.768  36.390  29.919  0.00  0.00    -0.030 C 
ATOM      4  C4  LG1 d5015      44.242  37.879  29.996  0.00  0.00     0.063 C 
ATOM      5  C5  LG1 d5015      43.072  38.711  29.362  0.00  0.00     0.013 C 
ATOM      6  C6  LG1 d5015      41.809  37.777  29.359  0.00  0.00     0.006 C 
ATOM      7  C9  LG1 d5015      43.996  35.837  28.468  0.00  0.00     0.016 C 
ATOM      8  C10 LG1 d5015      44.326  35.447  31.009  0.00  0.00     0.011 C 
ATOM      9  C11 LG1 d5015      43.544  34.105  31.044  0.00  0.00     0.007 C 
ATOM     10  C12 LG1 d5015      42.023  34.317  31.264  0.00  0.00     0.002 C 
ATOM     11  C13 LG1 d5015      41.250  32.948  31.313  0.00  0.00    -0.016 C 
ATOM     12  C14 LG1 d5015      39.710  33.246  31.521  0.00  0.00    -0.068 C 
ATOM     13  C15 LG1 d5015      38.954  32.620  32.405  0.00  0.00     0.053 C 
ATOM     14  C16 LG1 d5015      39.461  31.502  33.186  0.00  0.00     0.149 C 
ATOM     15  C17 LG1 d5015      40.863  30.960  32.926  0.00  0.00     0.084 C 
ATOM     16  C18 LG1 d5015      41.797  32.124  32.510  0.00  0.00     0.022 C 
ATOM     17  O2  LG1 d5015      38.732  30.933  34.017  0.00  0.00    -0.293 OA
ATOM     18  C19 LG1 d5015      39.080  34.343  30.668  0.00  0.00     0.035 C 
ATOM     19  C20 LG1 d5015      39.958  35.607  30.600  0.00  0.00     0.010 C 
ATOM     20  C21 LG1 d5015      41.367  32.138  29.965  0.00  0.00     0.020 C 
ENDROOT
BRANCH   4  21
ATOM     21  C7  LG1 d5015      45.632  38.147  29.396  0.00  0.00     0.128 C 
ATOM     22  O1  LG1 d5015      45.757  38.336  28.205  0.00  0.00    -0.298 OA
ATOM     23  C8  LG1 d5015      46.823  38.181  30.290  0.00  0.00     0.091 C 
ENDBRANCH   4  21
TORSDOF 1
ENDMDL
MODEL 2
REMARK VINA RESULT:    -7.163      1.151      7.205
REMARK INTER + INTRA:          -7.778
REMARK INTER:                  -7.948
REMARK INTRA:                   0.170
REMARK UNBOUND:                -0.195
REMARK  1 active torsions:
REMARK  status: ('A' for Active; 'I' for Inactive)
REMARK    1  A    between atoms: C7_7  and  C4_4 
ROOT
ATOM      1  C1  LG1 d5015      43.209  34.244  30.665  0.00  0.00    -0.004 C 
ATOM      2  C2  LG1 d5015      42.329  33.519  31.689  0.00  0.00    -0.001 C 
ATOM      3  C3  LG1 d5015      40.885  33.207  31.147  0.00  0.00    -0.030 C 
ATOM      4  C4  LG1 d5015      40.336  32.421  32.384  0.00  0.00     0.063 C 
ATOM      5  C5  LG1 d5015      41.541  31.544  32.875  0.00  0.00     0.013 C 
ATOM      6  C6  LG1 d5015      42.835  32.160  32.232  0.00  0.00     0.006 C 
ATOM      7  C9  LG1 d5015      40.881  32.275  29.885  0.00  0.00     0.016 C 
ATOM      8  C10 LG1 d5015      40.229  34.579  30.875  0.00  0.00     0.011 C 
ATOM      9  C11 LG1 d5015      41.061  35.407  29.856  0.00  0.00     0.007 C 
ATOM     10  C12 LG1 d5015      42.526  35.609  30.322  0.00  0.00     0.002 C 
ATOM     11  C13 LG1 d5015      43.349  36.462  29.286  0.00  0.00    -0.016 C 
ATOM     12  C14 LG1 d5015      44.831  36.610  29.820  0.00  0.00    -0.068 C 
ATOM     13  C15 LG1 d5015      45.489  37.755  29.851  0.00  0.00     0.053 C 
ATOM     14  C16 LG1 d5015      44.934  38.969  29.272  0.00  0.00     0.149 C 
ATOM     15  C17 LG1 d5015      43.606  38.922  28.523  0.00  0.00     0.084 C 
ATOM     16  C18 LG1 d5015      42.684  37.860  29.172  0.00  0.00     0.022 C 
ATOM     17  O2  LG1 d5015      45.570  40.037  29.320  0.00  0.00    -0.293 OA
ATOM     18  C19 LG1 d5015      45.519  35.359  30.356  0.00  0.00     0.035 C 
ATOM     19  C20 LG1 d5015      44.600  34.537  31.281  0.00  0.00     0.010 C 
ATOM     20  C21 LG1 d5015      43.452  35.766  27.875  0.00  0.00     0.020 C 
ENDROOT
BRANCH   4  21
ATOM     21  C7  LG1 d5015      39.028  31.651  32.133  0.00  0.00     0.128 C 
ATOM     22  O1  LG1 d5015      37.968  32.116  32.494  0.00  0.00    -0.298 OA
ATOM     23  C8  LG1 d5015      39.074  30.336  31.438  0.00  0.00     0.091 C 
ENDBRANCH   4  21
TORSDOF 1
ENDMDL
MODEL 3
REMARK VINA RESULT:    -6.885      1.272      6.920
REMARK INTER + INTRA:          -7.483
REMARK INTER:                  -7.366
REMARK INTRA:                  -0.117
REMARK UNBOUND:                -0.195
REMARK  1 active torsions:
REMARK  status: ('A' for Active; 'I' for Inactive)
REMARK    1  A    between atoms: C7_7  and  C4_4 
ROOT
ATOM      1  C1  LG1 d5015      41.546  34.913  31.000  0.00  0.00    -0.004 C 
ATOM      2  C2  LG1 d5015      40.597  33.714  31.098  0.00  0.00    -0.001 C 
ATOM      3  C3  LG1 d5015      41.231  32.489  31.856  0.00  0.00    -0.030 C 
ATOM      4  C4  LG1 d5015      39.991  31.534  31.834  0.00  0.00     0.063 C 
ATOM      5  C5  LG1 d5015      38.756  32.467  32.090  0.00  0.00     0.013 C 
ATOM      6  C6  LG1 d5015      39.236  33.935  31.801  0.00  0.00     0.006 C 
ATOM      7  C9  LG1 d5015      41.624  32.811  33.341  0.00  0.00     0.016 C 
ATOM      8  C10 LG1 d5015      42.440  32.044  31.003  0.00  0.00     0.011 C 
ATOM      9  C11 LG1 d5015      43.460  33.203  30.827  0.00  0.00     0.007 C 
ATOM     10  C12 LG1 d5015      42.812  34.464  30.198  0.00  0.00     0.002 C 
ATOM     11  C13 LG1 d5015      43.862  35.621  30.012  0.00  0.00    -0.016 C 
ATOM     12  C14 LG1 d5015      43.125  36.874  29.385  0.00  0.00    -0.068 C 
ATOM     13  C15 LG1 d5015      43.596  37.565  28.363  0.00  0.00     0.053 C 
ATOM     14  C16 LG1 d5015      44.912  37.299  27.803  0.00  0.00     0.149 C 
ATOM     15  C17 LG1 d5015      45.826  36.267  28.455  0.00  0.00     0.084 C 
ATOM     16  C18 LG1 d5015      44.970  35.120  29.047  0.00  0.00     0.022 C 
ATOM     17  O2  LG1 d5015      45.330  37.960  26.836  0.00  0.00    -0.293 OA
ATOM     18  C19 LG1 d5015      41.781  37.276  29.982  0.00  0.00     0.035 C 
ATOM     19  C20 LG1 d5015      40.860  36.064  30.220  0.00  0.00     0.010 C 
ATOM     20  C21 LG1 d5015      44.477  36.106  31.380  0.00  0.00     0.020 C 
ENDROOT
BRANCH   4  21
ATOM     21  C7  LG1 d5015      40.095  30.318  32.770  0.00  0.00     0.128 C 
ATOM     22  O1  LG1 d5015      39.599  30.355  33.876  0.00  0.00    -0.298 OA
ATOM     23  C8  LG1 d5015      40.803  29.093  32.305  0.00  0.00     0.091 C 
ENDBRANCH   4  21
TORSDOF 1
ENDMDL
MODEL 4
REMARK VINA RESULT:    -6.383      1.635      7.085
REMARK INTER + INTRA:          -6.951
REMARK INTER:                  -6.747
REMARK INTRA:                  -0.204
REMARK UNBOUND:                -0.195
REMARK  1 active torsions:
REMARK  status: ('A' for Active; 'I' for Inactive)
REMARK    1  A    between atoms: C7_7  and  C4_4 
ROOT
ATOM      1  C1  LG1 d5015      41.721  36.634  30.427  0.00  0.00    -0.004 C 
ATOM      2  C2  LG1 d5015      40.493  35.729  30.565  0.00  0.00    -0.001 C 
ATOM      3  C3  LG1 d5015      40.865  34.205  30.700  0.00  0.00    -0.030 C 
ATOM      4  C4  LG1 d5015      39.423  33.630  30.900  0.00  0.00     0.063 C 
ATOM      5  C5  LG1 d5015      38.695  34.671  31.821  0.00  0.00     0.013 C 
ATOM      6  C6  LG1 d5015      39.538  35.995  31.754  0.00  0.00     0.006 C 
ATOM      7  C9  LG1 d5015      41.741  33.887  31.963  0.00  0.00     0.016 C 
ATOM      8  C10 LG1 d5015      41.566  33.822  29.378  0.00  0.00     0.011 C 
ATOM      9  C11 LG1 d5015      42.823  34.703  29.133  0.00  0.00     0.007 C 
ATOM     10  C12 LG1 d5015      42.486  36.216  29.127  0.00  0.00     0.002 C 
ATOM     11  C13 LG1 d5015      43.767  37.091  28.863  0.00  0.00    -0.016 C 
ATOM     12  C14 LG1 d5015      43.349  38.618  28.890  0.00  0.00    -0.068 C 
ATOM     13  C15 LG1 d5015      43.719  39.496  27.975  0.00  0.00     0.053 C 
ATOM     14  C16 LG1 d5015      44.658  39.149  26.920  0.00  0.00     0.149 C 
ATOM     15  C17 LG1 d5015      45.317  37.773  26.905  0.00  0.00     0.084 C 
ATOM     16  C18 LG1 d5015      44.328  36.720  27.464  0.00  0.00     0.022 C 
ATOM     17  O2  LG1 d5015      44.986  39.991  26.066  0.00  0.00    -0.293 OA
ATOM     18  C19 LG1 d5015      42.440  39.083  30.023  0.00  0.00     0.035 C 
ATOM     19  C20 LG1 d5015      41.272  38.110  30.273  0.00  0.00     0.010 C 
ATOM     20  C21 LG1 d5015      44.864  36.912  29.981  0.00  0.00     0.020 C 
ENDROOT
BRANCH   4  21
ATOM     21  C7  LG1 d5015      39.370  32.174  31.393  0.00  0.00     0.128 C 
ATOM     22  O1  LG1 d5015      39.743  31.272  30.674  0.00  0.00    -0.298 OA
ATOM     23  C8  LG1 d5015      38.866  31.881  32.764  0.00  0.00     0.091 C 
ENDBRANCH   4  21
TORSDOF 1
ENDMDL
MODEL 5
REMARK VINA RESULT:    -6.204      1.712      3.161
REMARK INTER + INTRA:          -6.762
REMARK INTER:                  -6.566
REMARK INTRA:                  -0.195
REMARK UNBOUND:                -0.195
REMARK  1 active torsions:
REMARK  status: ('A' for Active; 'I' for Inactive)
REMARK    1  A    between atoms: C7_7  and  C4_4 
ROOT
ATOM      1  C1  LG1 d5015      42.666  33.860  31.306  0.00  0.00    -0.004 C 
ATOM      2  C2  LG1 d5015      43.422  34.839  30.401  0.00  0.00    -0.001 C 
ATOM      3  C3  LG1 d5015      42.514  36.009  29.867  0.00  0.00    -0.030 C 
ATOM      4  C4  LG1 d5015      43.606  36.815  29.088  0.00  0.00     0.063 C 
ATOM      5  C5  LG1 d5015      44.887  36.741  29.991  0.00  0.00     0.013 C 
ATOM      6  C6  LG1 d5015      44.657  35.557  30.999  0.00  0.00     0.006 C 
ATOM      7  C9  LG1 d5015      41.912  36.901  31.009  0.00  0.00     0.016 C 
ATOM      8  C10 LG1 d5015      41.425  35.337  29.000  0.00  0.00     0.011 C 
ATOM      9  C11 LG1 d5015      40.609  34.304  29.826  0.00  0.00     0.007 C 
ATOM     10  C12 LG1 d5015      41.513  33.218  30.466  0.00  0.00     0.002 C 
ATOM     11  C13 LG1 d5015      40.668  32.173  31.284  0.00  0.00    -0.016 C 
ATOM     12  C14 LG1 d5015      41.657  31.112  31.919  0.00  0.00    -0.068 C 
ATOM     13  C15 LG1 d5015      41.464  29.807  31.866  0.00  0.00     0.053 C 
ATOM     14  C16 LG1 d5015      40.243  29.237  31.318  0.00  0.00     0.149 C 
ATOM     15  C17 LG1 d5015      39.105  30.151  30.875  0.00  0.00     0.084 C 
ATOM     16  C18 LG1 d5015      39.691  31.467  30.306  0.00  0.00     0.022 C 
ATOM     17  O2  LG1 d5015      40.088  28.004  31.273  0.00  0.00    -0.293 OA
ATOM     18  C19 LG1 d5015      42.916  31.638  32.599  0.00  0.00     0.035 C 
ATOM     19  C20 LG1 d5015      43.619  32.729  31.768  0.00  0.00     0.010 C 
ATOM     20  C21 LG1 d5015      39.891  32.831  32.488  0.00  0.00     0.020 C 
ENDROOT
BRANCH   4  21
ATOM     21  C7  LG1 d5015      43.186  38.234  28.668  0.00  0.00     0.128 C 
ATOM     22  O1  LG1 d5015      42.370  38.392  27.784  0.00  0.00    -0.298 OA
ATOM     23  C8  LG1 d5015      43.781  39.410  29.359  0.00  0.00     0.091 C 
ENDBRANCH   4  21
TORSDOF 1
ENDMDL
