REMARK INTER + INTRA:          -8.489
REMARK INTER:                  -7.965
REMARK INTRA:                  -0.525
REMARK UNBOUND:                 0.315
REMARK  2 active torsions:
REMARK  status: ('A' for Active; 'I' for Inactive)
REMARK    1  A    between atoms: C1_1  and  N1_15 
REMARK    2  A    between atoms: C7_9  and  C4_4 
ROOT
ATOM      1  C1  LG1 d5015      43.379  35.709  30.077  0.00  0.00     0.141 A 
ATOM      2  C2  LG1 d5015      42.054  36.036  29.792  0.00  0.00     0.187 A 
ATOM      3  C3  LG1 d5015      41.025  35.173  30.169  0.00  0.00     0.175 A 
ATOM      4  C4  LG1 d5015      41.322  33.982  30.831  0.00  0.00     0.131 A 
ATOM      5  C5  LG1 d5015      42.647  33.654  31.115  0.00  0.00     0.175 A 
ATOM      6  C6  LG1 d5015      43.675  34.517  30.739  0.00  0.00     0.187 A 
ATOM      7  F1  LG1 d5015      44.945  34.189  31.019  0.00  0.00    -0.200 F 
ATOM      8  F2  LG1 d5015      42.942  32.510  31.751  0.00  0.00    -0.202 F 
ATOM      9  F6  LG1 d5015      39.754  35.499  29.891  0.00  0.00    -0.202 F 
ATOM     10  F7  LG1 d5015      41.754  37.179  29.157  0.00  0.00    -0.200 F 
ENDROOT
BRANCH   1  11
ATOM     11  N1  LG1 d5015      44.400  36.564  29.703  0.00  0.00    -0.232 N 
ATOM     12  N2  LG1 d5015      44.914  37.422  30.601  0.00  0.00    -0.172 NA
ATOM     13  C10 LG1 d5015      45.850  38.068  29.900  0.00  0.00     0.053 A 
ATOM     14  C9  LG1 d5015      45.932  37.627  28.566  0.00  0.00     0.055 A 
ATOM     15  C11 LG1 d5015      46.657  39.115  30.550  0.00  0.00     0.072 C 
ATOM     16  C8  LG1 d5015      44.974  36.647  28.470  0.00  0.00     0.035 A 
ATOM     17  C12 LG1 d5015      44.577  35.804  27.325  0.00  0.00     0.070 C 
ENDBRANCH   1  11
BRANCH   4  18
ATOM     18  C7  LG1 d5015      40.221  33.058  31.233  0.00  0.00     0.423 C 
ATOM     19  F4  LG1 d5015      38.974  33.543  30.961  0.00  0.00    -0.166 F 
ATOM     20  F3  LG1 d5015      40.209  32.772  32.569  0.00  0.00    -0.166 F 
ATOM     21  F5  LG1 d5015      40.292  31.851  30.601  0.00  0.00    -0.166 F 
ENDBRANCH   4  18
TORSDOF 2
ENDMDL
