REMARK INTER + INTRA:          -6.467
REMARK INTER:                  -6.314
REMARK INTRA:                  -0.153
REMARK UNBOUND:                -0.189
REMARK  1 active torsions:
REMARK  status: ('A' for Active; 'I' for Inactive)
REMARK    1  A    between atoms: C1_1  and  N1_10 
ROOT
ATOM      1  C1  LG1 d5015      41.407  33.356  31.188  0.00  0.00     0.056 A 
ATOM      2  C2  LG1 d5015      40.520  34.313  30.697  0.00  0.00    -0.033 A 
ATOM      3  C3  LG1 d5015      41.004  35.531  30.219  0.00  0.00     0.028 A 
ATOM      4  C4  LG1 d5015      42.374  35.792  30.232  0.00  0.00     0.012 A 
ATOM      5  C5  LG1 d5015      43.261  34.833  30.725  0.00  0.00     0.028 A 
ATOM      6  C6  LG1 d5015      42.777  33.617  31.203  0.00  0.00    -0.033 A 
ATOM      7  C7  LG1 d5015      43.752  32.611  31.724  0.00  0.00     0.050 C 
ATOM      8 BR1  LG1 d5015      43.028  37.443  29.586  0.00  0.00    -0.051 Br
ATOM      9  C8  LG1 d5015      39.047  34.062  30.668  0.00  0.00     0.050 C 
ENDROOT
BRANCH   1  10
ATOM     10  N1  LG1 d5015      40.910  32.101  31.679  0.00  0.00    -0.265 N 
ATOM     11  C11 LG1 d5015      40.472  31.891  32.986  0.00  0.00     0.148 C 
ATOM     12  S2  LG1 d5015      40.175  32.986  34.219  0.00  0.00    -0.052 SA
ATOM     13  S1  LG1 d5015      40.120  30.183  33.217  0.00  0.00    -0.090 SA
ATOM     14  C10 LG1 d5015      40.270  29.789  31.475  0.00  0.00     0.185 C 
ATOM     15  C9  LG1 d5015      40.868  30.998  30.815  0.00  0.00     0.239 C 
ATOM     16  O1  LG1 d5015      41.269  30.943  29.655  0.00  0.00    -0.272 OA
ENDBRANCH   1  10
TORSDOF 1
ENDMDL
