REMARK INTER + INTRA:          -7.905
REMARK INTER:                  -7.746
REMARK INTRA:                  -0.160
REMARK UNBOUND:                 0.005
REMARK  1 active torsions:
REMARK  status: ('A' for Active; 'I' for Inactive)
REMARK    1  A    between atoms: C10_13  and  C11_14 
ROOT
ATOM      1  C1  LG1 d5015      43.270  35.613  30.255  0.00  0.00     0.018 C 
ATOM      2  C2  LG1 d5015      43.208  34.313  30.969  0.00  0.00     0.193 C 
ATOM      3  C3  LG1 d5015      41.838  33.818  31.219  0.00  0.00     0.049 A 
ATOM      4  C4  LG1 d5015      41.638  32.664  31.980  0.00  0.00     0.037 A 
ATOM      5  C5  LG1 d5015      40.346  32.170  32.161  0.00  0.00     0.012 A 
ATOM      6  C6  LG1 d5015      39.257  32.818  31.577  0.00  0.00     0.022 A 
ATOM      7  C7  LG1 d5015      39.457  33.969  30.813  0.00  0.00     0.039 A 
ATOM      8  C8  LG1 d5015      40.745  34.480  30.648  0.00  0.00     0.083 A 
ATOM      9  O1  LG1 d5015      40.871  35.603  29.873  0.00  0.00    -0.346 OA
ATOM     10  C9  LG1 d5015      42.004  36.405  30.223  0.00  0.00     0.218 C 
ATOM     11 BR1  LG1 d5015      40.066  30.625  33.215  0.00  0.00    -0.051 Br
ATOM     12  O2  LG1 d5015      44.195  33.689  31.330  0.00  0.00    -0.287 OA
ATOM     13  C10 LG1 d5015      44.424  36.001  29.697  0.00  0.00     0.025 C 
ENDROOT
BRANCH  13  14
ATOM     14  C11 LG1 d5015      44.608  37.229  28.983  0.00  0.00    -0.029 A 
ATOM     15  C14 LG1 d5015      44.341  37.359  27.639  0.00  0.00     0.061 A 
ATOM     16  S1  LG1 d5015      44.656  38.943  27.073  0.00  0.00    -0.113 SA
ATOM     17  C13 LG1 d5015      45.154  39.459  28.626  0.00  0.00     0.050 A 
ATOM     18  C12 LG1 d5015      45.079  38.446  29.556  0.00  0.00     0.019 A 
ENDBRANCH  13  14
TORSDOF 1
ENDMDL
