REMARK INTER + INTRA:         -10.850
REMARK INTER:                 -10.343
REMARK INTRA:                  -0.507
REMARK UNBOUND:                 0.315
REMARK  2 active torsions:
REMARK  status: ('A' for Active; 'I' for Inactive)
REMARK    1  A    between atoms: C1_1  and  N1_15 
REMARK    2  A    between atoms: C7_9  and  C4_4 
ROOT
ATOM      1  C1  LG1 d5015      41.800  32.876  31.278  0.00  0.00     0.141 A 
ATOM      2  C2  LG1 d5015      43.167  33.113  31.424  0.00  0.00     0.187 A 
ATOM      3  C3  LG1 d5015      43.722  34.303  30.954  0.00  0.00     0.175 A 
ATOM      4  C4  LG1 d5015      42.911  35.256  30.338  0.00  0.00     0.131 A 
ATOM      5  C5  LG1 d5015      41.545  35.019  30.192  0.00  0.00     0.175 A 
ATOM      6  C6  LG1 d5015      40.990  33.830  30.662  0.00  0.00     0.187 A 
ATOM      7  F1  LG1 d5015      39.674  33.616  30.514  0.00  0.00    -0.200 F 
ATOM      8  F2  LG1 d5015      40.758  35.930  29.600  0.00  0.00    -0.202 F 
ATOM      9  F6  LG1 d5015      45.038  34.520  31.100  0.00  0.00    -0.202 F 
ATOM     10  F7  LG1 d5015      43.958  32.205  32.014  0.00  0.00    -0.200 F 
ENDROOT
BRANCH   1  11
ATOM     11  N1  LG1 d5015      41.248  31.696  31.743  0.00  0.00    -0.232 N 
ATOM     12  N2  LG1 d5015      41.328  30.582  30.995  0.00  0.00    -0.172 NA
ATOM     13  C10 LG1 d5015      40.702  29.670  31.744  0.00  0.00     0.053 A 
ATOM     14  C9  LG1 d5015      40.226  30.197  32.959  0.00  0.00     0.055 A 
ATOM     15  C11 LG1 d5015      40.579  28.285  31.257  0.00  0.00     0.072 C 
ATOM     16  C8  LG1 d5015      40.597  31.519  32.928  0.00  0.00     0.035 A 
ATOM     17  C12 LG1 d5015      40.388  32.597  33.914  0.00  0.00     0.070 C 
ENDBRANCH   1  11
BRANCH   4  18
ATOM     18  C7  LG1 d5015      43.507  36.528  29.836  0.00  0.00     0.423 C 
ATOM     19  F4  LG1 d5015      44.785  36.741  30.266  0.00  0.00    -0.166 F 
ATOM     20  F3  LG1 d5015      42.814  37.643  30.213  0.00  0.00    -0.166 F 
ATOM     21  F5  LG1 d5015      43.566  36.577  28.473  0.00  0.00    -0.166 F 
ENDBRANCH   4  18
TORSDOF 2
ENDMDL
