REMARK INTER + INTRA:          -8.608
REMARK INTER:                  -8.443
REMARK INTRA:                  -0.166
REMARK UNBOUND:                -0.168
REMARK  1 active torsions:
REMARK  status: ('A' for Active; 'I' for Inactive)
REMARK    1  A    between atoms: C10_13  and  C11_14 
ROOT
ATOM      1  C1  LG1 d5015      42.559  33.902  31.005  0.00  0.00     0.018 C 
ATOM      2  C2  LG1 d5015      43.719  34.774  30.693  0.00  0.00     0.193 C 
ATOM      3  C3  LG1 d5015      43.357  36.126  30.216  0.00  0.00     0.049 A 
ATOM      4  C4  LG1 d5015      44.352  37.004  29.782  0.00  0.00     0.037 A 
ATOM      5  C5  LG1 d5015      44.008  38.299  29.390  0.00  0.00     0.012 A 
ATOM      6  C6  LG1 d5015      42.679  38.719  29.440  0.00  0.00     0.022 A 
ATOM      7  C7  LG1 d5015      41.685  37.841  29.878  0.00  0.00     0.039 A 
ATOM      8  C8  LG1 d5015      42.020  36.539  30.250  0.00  0.00     0.083 A 
ATOM      9  O1  LG1 d5015      40.999  35.737  30.685  0.00  0.00    -0.346 OA
ATOM     10  C9  LG1 d5015      41.241  34.344  30.458  0.00  0.00     0.218 C 
ATOM     11 BR1  LG1 d5015      45.346  39.484  28.772  0.00  0.00    -0.051 Br
ATOM     12  O2  LG1 d5015      44.884  34.423  30.812  0.00  0.00    -0.287 OA
ATOM     13  C10 LG1 d5015      42.747  32.795  31.734  0.00  0.00     0.025 C 
ENDROOT
BRANCH  13  14
ATOM     14  C11 LG1 d5015      41.710  31.878  32.100  0.00  0.00    -0.029 A 
ATOM     15  C14 LG1 d5015      40.960  32.017  33.245  0.00  0.00     0.061 A 
ATOM     16  S1  LG1 d5015      39.800  30.768  33.409  0.00  0.00    -0.113 SA
ATOM     17  C13 LG1 d5015      40.299  30.037  31.944  0.00  0.00     0.050 A 
ATOM     18  C12 LG1 d5015      41.326  30.731  31.345  0.00  0.00     0.019 A 
ENDBRANCH  13  14
TORSDOF 1
ENDMDL
