REMARK INTER + INTRA:          -8.569
REMARK INTER:                  -8.401
REMARK INTRA:                  -0.168
REMARK UNBOUND:                 0.005
REMARK  1 active torsions:
REMARK  status: ('A' for Active; 'I' for Inactive)
REMARK    1  A    between atoms: C10_13  and  C11_14 
ROOT
ATOM      1  C1  LG1 d5015      42.583  33.935  31.021  0.00  0.00     0.018 C 
ATOM      2  C2  LG1 d5015      43.735  34.827  30.737  0.00  0.00     0.193 C 
ATOM      3  C3  LG1 d5015      43.363  36.174  30.258  0.00  0.00     0.049 A 
ATOM      4  C4  LG1 d5015      44.354  37.070  29.849  0.00  0.00     0.037 A 
ATOM      5  C5  LG1 d5015      43.998  38.361  29.455  0.00  0.00     0.012 A 
ATOM      6  C6  LG1 d5015      42.662  38.760  29.478  0.00  0.00     0.022 A 
ATOM      7  C7  LG1 d5015      41.673  37.866  29.890  0.00  0.00     0.039 A 
ATOM      8  C8  LG1 d5015      42.020  36.567  30.264  0.00  0.00     0.083 A 
ATOM      9  O1  LG1 d5015      41.002  35.747  30.673  0.00  0.00    -0.346 OA
ATOM     10  C9  LG1 d5015      41.270  34.359  30.447  0.00  0.00     0.218 C 
ATOM     11 BR1  LG1 d5015      45.331  39.569  28.871  0.00  0.00    -0.051 Br
ATOM     12  O2  LG1 d5015      44.903  34.493  30.881  0.00  0.00    -0.287 OA
ATOM     13  C10 LG1 d5015      42.772  32.828  31.749  0.00  0.00     0.025 C 
ENDROOT
BRANCH  13  14
ATOM     14  C11 LG1 d5015      41.742  31.894  32.089  0.00  0.00    -0.029 A 
ATOM     15  C14 LG1 d5015      40.985  31.998  33.234  0.00  0.00     0.061 A 
ATOM     16  S1  LG1 d5015      39.835  30.737  33.362  0.00  0.00    -0.113 SA
ATOM     17  C13 LG1 d5015      40.347  30.046  31.883  0.00  0.00     0.050 A 
ATOM     18  C12 LG1 d5015      41.372  30.762  31.305  0.00  0.00     0.019 A 
ENDBRANCH  13  14
TORSDOF 1
ENDMDL
