REMARK INTER + INTRA:          -5.819
REMARK INTER:                  -5.716
REMARK INTRA:                  -0.103
REMARK UNBOUND:                -0.179
REMARK  1 active torsions:
REMARK  status: ('A' for Active; 'I' for Inactive)
REMARK    1  A    between atoms: C1_1  and  N1_10 
ROOT
ATOM      1  C1  LG1 d5015      44.229  37.435  28.566  0.00  0.00     0.056 A 
ATOM      2  C2  LG1 d5015      43.125  37.295  29.406  0.00  0.00    -0.033 A 
ATOM      3  C3  LG1 d5015      42.996  36.157  30.203  0.00  0.00     0.028 A 
ATOM      4  C4  LG1 d5015      43.970  35.160  30.160  0.00  0.00     0.012 A 
ATOM      5  C5  LG1 d5015      45.075  35.300  29.317  0.00  0.00     0.028 A 
ATOM      6  C6  LG1 d5015      45.203  36.437  28.521  0.00  0.00    -0.033 A 
ATOM      7  C7  LG1 d5015      46.396  36.559  27.630  0.00  0.00     0.050 C 
ATOM      8 BR1  LG1 d5015      43.794  33.618  31.239  0.00  0.00    -0.051 Br
ATOM      9  C8  LG1 d5015      42.066  38.347  29.476  0.00  0.00     0.050 C 
ENDROOT
BRANCH   1  10
ATOM     10  N1  LG1 d5015      44.363  38.606  27.746  0.00  0.00    -0.265 N 
ATOM     11  C11 LG1 d5015      44.037  38.654  26.391  0.00  0.00     0.148 C 
ATOM     12  S2  LG1 d5015      43.228  37.545  25.431  0.00  0.00    -0.052 SA
ATOM     13  S1  LG1 d5015      44.520  40.212  25.729  0.00  0.00    -0.090 SA
ATOM     14  C10 LG1 d5015      44.885  40.920  27.334  0.00  0.00     0.185 C 
ATOM     15  C9  LG1 d5015      44.867  39.784  28.316  0.00  0.00     0.239 C 
ATOM     16  O1  LG1 d5015      45.279  39.942  29.462  0.00  0.00    -0.272 OA
ENDBRANCH   1  10
TORSDOF 1
ENDMDL
