REMARK INTER + INTRA:          -5.822
REMARK INTER:                  -5.714
REMARK INTRA:                  -0.108
REMARK UNBOUND:                -0.183
REMARK  1 active torsions:
REMARK  status: ('A' for Active; 'I' for Inactive)
REMARK    1  A    between atoms: C1_1  and  N1_10 
ROOT
ATOM      1  C1  LG1 d5015      44.232  37.436  28.568  0.00  0.00     0.056 A 
ATOM      2  C2  LG1 d5015      43.128  37.296  29.408  0.00  0.00    -0.033 A 
ATOM      3  C3  LG1 d5015      42.997  36.156  30.202  0.00  0.00     0.028 A 
ATOM      4  C4  LG1 d5015      43.970  35.158  30.156  0.00  0.00     0.012 A 
ATOM      5  C5  LG1 d5015      45.075  35.298  29.314  0.00  0.00     0.028 A 
ATOM      6  C6  LG1 d5015      45.205  36.437  28.521  0.00  0.00    -0.033 A 
ATOM      7  C7  LG1 d5015      46.399  36.560  27.630  0.00  0.00     0.050 C 
ATOM      8 BR1  LG1 d5015      43.791  33.613  31.231  0.00  0.00    -0.051 Br
ATOM      9  C8  LG1 d5015      42.071  38.349  29.481  0.00  0.00     0.050 C 
ENDROOT
BRANCH   1  10
ATOM     10  N1  LG1 d5015      44.368  38.610  27.752  0.00  0.00    -0.265 N 
ATOM     11  C11 LG1 d5015      44.040  38.663  26.398  0.00  0.00     0.148 C 
ATOM     12  S2  LG1 d5015      43.224  37.559  25.436  0.00  0.00    -0.052 SA
ATOM     13  S1  LG1 d5015      44.526  40.220  25.738  0.00  0.00    -0.090 SA
ATOM     14  C10 LG1 d5015      44.897  40.923  27.345  0.00  0.00     0.185 C 
ATOM     15  C9  LG1 d5015      44.877  39.784  28.323  0.00  0.00     0.239 C 
ATOM     16  O1  LG1 d5015      45.294  39.937  29.470  0.00  0.00    -0.272 OA
ENDBRANCH   1  10
TORSDOF 1
ENDMDL
