REMARK INTER + INTRA:          -8.620
REMARK INTER:                  -8.454
REMARK INTRA:                  -0.166
REMARK UNBOUND:                 0.087
REMARK  1 active torsions:
REMARK  status: ('A' for Active; 'I' for Inactive)
REMARK    1  A    between atoms: C10_13  and  C11_14 
ROOT
ATOM      1  C1  LG1 d5015      42.567  33.907  31.023  0.00  0.00     0.018 C 
ATOM      2  C2  LG1 d5015      43.726  34.780  30.711  0.00  0.00     0.193 C 
ATOM      3  C3  LG1 d5015      43.364  36.126  30.219  0.00  0.00     0.049 A 
ATOM      4  C4  LG1 d5015      44.359  37.004  29.784  0.00  0.00     0.037 A 
ATOM      5  C5  LG1 d5015      44.014  38.293  29.378  0.00  0.00     0.012 A 
ATOM      6  C6  LG1 d5015      42.683  38.710  29.415  0.00  0.00     0.022 A 
ATOM      7  C7  LG1 d5015      41.689  37.833  29.853  0.00  0.00     0.039 A 
ATOM      8  C8  LG1 d5015      42.025  36.536  30.239  0.00  0.00     0.083 A 
ATOM      9  O1  LG1 d5015      41.003  35.734  30.675  0.00  0.00    -0.346 OA
ATOM     10  C9  LG1 d5015      41.251  34.340  30.463  0.00  0.00     0.218 C 
ATOM     11 BR1  LG1 d5015      45.353  39.477  28.758  0.00  0.00    -0.051 Br
ATOM     12  O2  LG1 d5015      44.891  34.433  30.842  0.00  0.00    -0.287 OA
ATOM     13  C10 LG1 d5015      42.752  32.807  31.764  0.00  0.00     0.025 C 
ENDROOT
BRANCH  13  14
ATOM     14  C11 LG1 d5015      41.716  31.890  32.131  0.00  0.00    -0.029 A 
ATOM     15  C14 LG1 d5015      40.956  32.037  33.270  0.00  0.00     0.061 A 
ATOM     16  S1  LG1 d5015      39.799  30.787  33.436  0.00  0.00    -0.113 SA
ATOM     17  C13 LG1 d5015      40.311  30.045  31.981  0.00  0.00     0.050 A 
ATOM     18  C12 LG1 d5015      41.341  30.736  31.383  0.00  0.00     0.019 A 
ENDBRANCH  13  14
TORSDOF 1
ENDMDL
