REMARK INTER + INTRA:          -8.591
REMARK INTER:                  -8.424
REMARK INTRA:                  -0.167
REMARK UNBOUND:                -0.068
REMARK  1 active torsions:
REMARK  status: ('A' for Active; 'I' for Inactive)
REMARK    1  A    between atoms: C10_13  and  C11_14 
ROOT
ATOM      1  C1  LG1 d5015      42.571  33.914  31.017  0.00  0.00     0.018 C 
ATOM      2  C2  LG1 d5015      43.727  34.796  30.721  0.00  0.00     0.193 C 
ATOM      3  C3  LG1 d5015      43.360  36.145  30.241  0.00  0.00     0.049 A 
ATOM      4  C4  LG1 d5015      44.353  37.033  29.822  0.00  0.00     0.037 A 
ATOM      5  C5  LG1 d5015      44.004  38.325  29.428  0.00  0.00     0.012 A 
ATOM      6  C6  LG1 d5015      42.670  38.734  29.461  0.00  0.00     0.022 A 
ATOM      7  C7  LG1 d5015      41.679  37.848  29.884  0.00  0.00     0.039 A 
ATOM      8  C8  LG1 d5015      42.019  36.548  30.258  0.00  0.00     0.083 A 
ATOM      9  O1  LG1 d5015      40.999  35.736  30.679  0.00  0.00    -0.346 OA
ATOM     10  C9  LG1 d5015      41.256  34.346  30.453  0.00  0.00     0.218 C 
ATOM     11 BR1  LG1 d5015      45.340  39.523  28.829  0.00  0.00    -0.051 Br
ATOM     12  O2  LG1 d5015      44.893  34.454  30.855  0.00  0.00    -0.287 OA
ATOM     13  C10 LG1 d5015      42.758  32.807  31.746  0.00  0.00     0.025 C 
ENDROOT
BRANCH  13  14
ATOM     14  C11 LG1 d5015      41.724  31.881  32.097  0.00  0.00    -0.029 A 
ATOM     15  C14 LG1 d5015      40.975  31.997  33.246  0.00  0.00     0.061 A 
ATOM     16  S1  LG1 d5015      39.818  30.744  33.388  0.00  0.00    -0.113 SA
ATOM     17  C13 LG1 d5015      40.317  30.040  31.910  0.00  0.00     0.050 A 
ATOM     18  C12 LG1 d5015      41.343  30.747  31.323  0.00  0.00     0.019 A 
ENDBRANCH  13  14
TORSDOF 1
ENDMDL
