REMARK INTER + INTRA:          -5.820
REMARK INTER:                  -5.741
REMARK INTRA:                  -0.079
REMARK UNBOUND:                -0.183
REMARK  1 active torsions:
REMARK  status: ('A' for Active; 'I' for Inactive)
REMARK    1  A    between atoms: C1_1  and  N1_10 
ROOT
ATOM      1  C1  LG1 d5015      44.233  37.428  28.571  0.00  0.00     0.056 A 
ATOM      2  C2  LG1 d5015      45.210  36.433  28.524  0.00  0.00    -0.033 A 
ATOM      3  C3  LG1 d5015      45.092  35.303  29.334  0.00  0.00     0.028 A 
ATOM      4  C4  LG1 d5015      43.999  35.168  30.189  0.00  0.00     0.012 A 
ATOM      5  C5  LG1 d5015      43.022  36.165  30.236  0.00  0.00     0.028 A 
ATOM      6  C6  LG1 d5015      43.141  37.294  29.427  0.00  0.00    -0.033 A 
ATOM      7  C7  LG1 d5015      42.079  38.344  29.499  0.00  0.00     0.050 C 
ATOM      8 BR1  LG1 d5015      43.840  33.637  31.286  0.00  0.00    -0.051 Br
ATOM      9  C8  LG1 d5015      46.391  36.549  27.617  0.00  0.00     0.050 C 
ENDROOT
BRANCH   1  10
ATOM     10  N1  LG1 d5015      44.353  38.591  27.737  0.00  0.00    -0.265 N 
ATOM     11  C11 LG1 d5015      44.028  38.618  26.381  0.00  0.00     0.148 C 
ATOM     12  S2  LG1 d5015      43.233  37.487  25.434  0.00  0.00    -0.052 SA
ATOM     13  S1  LG1 d5015      44.491  40.173  25.700  0.00  0.00    -0.090 SA
ATOM     14  C10 LG1 d5015      44.847  40.906  27.297  0.00  0.00     0.185 C 
ATOM     15  C9  LG1 d5015      44.842  39.782  28.292  0.00  0.00     0.239 C 
ATOM     16  O1  LG1 d5015      45.252  39.959  29.437  0.00  0.00    -0.272 OA
ENDBRANCH   1  10
TORSDOF 1
ENDMDL
