REMARK INTER + INTRA:          -7.966
REMARK INTER:                  -7.832
REMARK INTRA:                  -0.134
REMARK UNBOUND:                -0.131
REMARK  1 active torsions:
REMARK  status: ('A' for Active; 'I' for Inactive)
REMARK    1  A    between atoms: C10_13  and  C11_14 
ROOT
ATOM      1  C1  LG1 d5015      41.460  33.698  30.852  0.00  0.00     0.018 C 
ATOM      2  C2  LG1 d5015      41.318  35.050  30.257  0.00  0.00     0.193 C 
ATOM      3  C3  LG1 d5015      42.587  35.795  30.122  0.00  0.00     0.049 A 
ATOM      4  C4  LG1 d5015      42.577  37.120  29.680  0.00  0.00     0.037 A 
ATOM      5  C5  LG1 d5015      43.784  37.797  29.498  0.00  0.00     0.012 A 
ATOM      6  C6  LG1 d5015      44.997  37.152  29.746  0.00  0.00     0.022 A 
ATOM      7  C7  LG1 d5015      45.005  35.827  30.183  0.00  0.00     0.039 A 
ATOM      8  C8  LG1 d5015      43.802  35.152  30.388  0.00  0.00     0.083 A 
ATOM      9  O1  LG1 d5015      43.884  33.849  30.802  0.00  0.00    -0.346 OA
ATOM     10  C9  LG1 d5015      42.747  33.426  31.561  0.00  0.00     0.218 C 
ATOM     11 BR1  LG1 d5015      43.777  39.601  28.930  0.00  0.00    -0.051 Br
ATOM     12  O2  LG1 d5015      40.249  35.526  29.902  0.00  0.00    -0.287 OA
ATOM     13  C10 LG1 d5015      40.457  32.819  30.733  0.00  0.00     0.025 C 
ENDROOT
BRANCH  13  14
ATOM     14  C11 LG1 d5015      40.476  31.488  31.263  0.00  0.00    -0.029 A 
ATOM     15  C14 LG1 d5015      40.743  30.380  30.490  0.00  0.00     0.061 A 
ATOM     16  S1  LG1 d5015      40.695  28.934  31.405  0.00  0.00    -0.113 SA
ATOM     17  C13 LG1 d5015      40.315  29.788  32.839  0.00  0.00     0.050 A 
ATOM     18  C12 LG1 d5015      40.228  31.145  32.624  0.00  0.00     0.019 A 
ENDBRANCH  13  14
TORSDOF 1
ENDMDL
