REMARK INTER + INTRA:          -6.443
REMARK INTER:                  -6.291
REMARK INTRA:                  -0.152
REMARK UNBOUND:                -0.189
REMARK  1 active torsions:
REMARK  status: ('A' for Active; 'I' for Inactive)
REMARK    1  A    between atoms: C1_1  and  N1_10 
ROOT
ATOM      1  C1  LG1 d5015      41.412  33.347  31.191  0.00  0.00     0.056 A 
ATOM      2  C2  LG1 d5015      42.780  33.623  31.199  0.00  0.00    -0.033 A 
ATOM      3  C3  LG1 d5015      43.248  34.839  30.702  0.00  0.00     0.028 A 
ATOM      4  C4  LG1 d5015      42.351  35.779  30.197  0.00  0.00     0.012 A 
ATOM      5  C5  LG1 d5015      40.982  35.502  30.188  0.00  0.00     0.028 A 
ATOM      6  C6  LG1 d5015      40.515  34.287  30.684  0.00  0.00    -0.033 A 
ATOM      7  C7  LG1 d5015      39.044  34.020  30.661  0.00  0.00     0.050 C 
ATOM      8 BR1  LG1 d5015      42.987  37.426  29.522  0.00  0.00    -0.051 Br
ATOM      9  C8  LG1 d5015      43.765  32.636  31.736  0.00  0.00     0.050 C 
ENDROOT
BRANCH   1  10
ATOM     10  N1  LG1 d5015      40.929  32.096  31.704  0.00  0.00    -0.265 N 
ATOM     11  C11 LG1 d5015      40.491  31.904  33.014  0.00  0.00     0.148 C 
ATOM     12  S2  LG1 d5015      40.180  33.018  34.227  0.00  0.00    -0.052 SA
ATOM     13  S1  LG1 d5015      40.159  30.197  33.275  0.00  0.00    -0.090 SA
ATOM     14  C10 LG1 d5015      40.315  29.774  31.540  0.00  0.00     0.185 C 
ATOM     15  C9  LG1 d5015      40.901  30.977  30.859  0.00  0.00     0.239 C 
ATOM     16  O1  LG1 d5015      41.304  30.906  29.701  0.00  0.00    -0.272 OA
ENDBRANCH   1  10
TORSDOF 1
ENDMDL
