REMARK INTER + INTRA:          -7.912
REMARK INTER:                  -7.751
REMARK INTRA:                  -0.162
REMARK UNBOUND:                 0.087
REMARK  1 active torsions:
REMARK  status: ('A' for Active; 'I' for Inactive)
REMARK    1  A    between atoms: C10_13  and  C11_14 
ROOT
ATOM      1  C1  LG1 d5015      43.275  35.562  30.235  0.00  0.00     0.018 C 
ATOM      2  C2  LG1 d5015      43.213  34.272  30.966  0.00  0.00     0.193 C 
ATOM      3  C3  LG1 d5015      41.844  33.773  31.214  0.00  0.00     0.049 A 
ATOM      4  C4  LG1 d5015      41.645  32.628  31.988  0.00  0.00     0.037 A 
ATOM      5  C5  LG1 d5015      40.354  32.130  32.167  0.00  0.00     0.012 A 
ATOM      6  C6  LG1 d5015      39.266  32.766  31.568  0.00  0.00     0.022 A 
ATOM      7  C7  LG1 d5015      39.466  33.908  30.791  0.00  0.00     0.039 A 
ATOM      8  C8  LG1 d5015      40.752  34.423  30.627  0.00  0.00     0.083 A 
ATOM      9  O1  LG1 d5015      40.878  35.536  29.838  0.00  0.00    -0.346 OA
ATOM     10  C9  LG1 d5015      42.005  36.348  30.185  0.00  0.00     0.218 C 
ATOM     11 BR1  LG1 d5015      40.074  30.598  33.240  0.00  0.00    -0.051 Br
ATOM     12  O2  LG1 d5015      44.201  33.657  31.341  0.00  0.00    -0.287 OA
ATOM     13  C10 LG1 d5015      44.430  35.949  29.680  0.00  0.00     0.025 C 
ENDROOT
BRANCH  13  14
ATOM     14  C11 LG1 d5015      44.613  37.168  28.951  0.00  0.00    -0.029 A 
ATOM     15  C14 LG1 d5015      44.364  37.277  27.601  0.00  0.00     0.061 A 
ATOM     16  S1  LG1 d5015      44.673  38.855  27.017  0.00  0.00    -0.113 SA
ATOM     17  C13 LG1 d5015      45.143  39.398  28.571  0.00  0.00     0.050 A 
ATOM     18  C12 LG1 d5015      45.065  38.398  29.513  0.00  0.00     0.019 A 
ENDBRANCH  13  14
TORSDOF 1
ENDMDL
