REMARK INTER + INTRA:          -7.340
REMARK INTER:                  -7.171
REMARK INTRA:                  -0.169
REMARK UNBOUND:                 0.005
REMARK  1 active torsions:
REMARK  status: ('A' for Active; 'I' for Inactive)
REMARK    1  A    between atoms: C10_13  and  C11_14 
ROOT
ATOM      1  C1  LG1 d5015      41.784  36.365  29.892  0.00  0.00     0.018 C 
ATOM      2  C2  LG1 d5015      40.637  35.730  30.589  0.00  0.00     0.193 C 
ATOM      3  C3  LG1 d5015      40.909  34.371  31.102  0.00  0.00     0.049 A 
ATOM      4  C4  LG1 d5015      39.881  33.621  31.677  0.00  0.00     0.037 A 
ATOM      5  C5  LG1 d5015      40.159  32.364  32.214  0.00  0.00     0.012 A 
ATOM      6  C6  LG1 d5015      41.460  31.860  32.187  0.00  0.00     0.022 A 
ATOM      7  C7  LG1 d5015      42.488  32.611  31.615  0.00  0.00     0.039 A 
ATOM      8  C8  LG1 d5015      42.211  33.859  31.057  0.00  0.00     0.083 A 
ATOM      9  O1  LG1 d5015      43.269  34.551  30.528  0.00  0.00    -0.346 OA
ATOM     10  C9  LG1 d5015      42.889  35.448  29.480  0.00  0.00     0.218 C 
ATOM     11 BR1  LG1 d5015      38.766  31.330  32.967  0.00  0.00    -0.051 Br
ATOM     12  O2  LG1 d5015      39.549  36.269  30.734  0.00  0.00    -0.287 OA
ATOM     13  C10 LG1 d5015      41.769  37.685  29.671  0.00  0.00     0.025 C 
ENDROOT
BRANCH  13  14
ATOM     14  C11 LG1 d5015      42.814  38.410  29.012  0.00  0.00    -0.029 A 
ATOM     15  C14 LG1 d5015      42.804  38.673  27.661  0.00  0.00     0.061 A 
ATOM     16  S1  LG1 d5015      44.184  39.558  27.169  0.00  0.00    -0.113 SA
ATOM     17  C13 LG1 d5015      44.801  39.590  28.765  0.00  0.00     0.050 A 
ATOM     18  C12 LG1 d5015      43.971  38.942  29.652  0.00  0.00     0.019 A 
ENDBRANCH  13  14
TORSDOF 1
ENDMDL
