REMARK INTER + INTRA:          -8.612
REMARK INTER:                  -8.448
REMARK INTRA:                  -0.165
REMARK UNBOUND:                -0.131
REMARK  1 active torsions:
REMARK  status: ('A' for Active; 'I' for Inactive)
REMARK    1  A    between atoms: C10_13  and  C11_14 
ROOT
ATOM      1  C1  LG1 d5015      42.576  33.917  31.025  0.00  0.00     0.018 C 
ATOM      2  C2  LG1 d5015      43.737  34.789  30.717  0.00  0.00     0.193 C 
ATOM      3  C3  LG1 d5015      43.377  36.136  30.224  0.00  0.00     0.049 A 
ATOM      4  C4  LG1 d5015      44.375  37.013  29.793  0.00  0.00     0.037 A 
ATOM      5  C5  LG1 d5015      44.032  38.303  29.386  0.00  0.00     0.012 A 
ATOM      6  C6  LG1 d5015      42.701  38.720  29.418  0.00  0.00     0.022 A 
ATOM      7  C7  LG1 d5015      41.705  37.844  29.852  0.00  0.00     0.039 A 
ATOM      8  C8  LG1 d5015      42.039  36.546  30.239  0.00  0.00     0.083 A 
ATOM      9  O1  LG1 d5015      41.015  35.745  30.670  0.00  0.00    -0.346 OA
ATOM     10  C9  LG1 d5015      41.263  34.351  30.459  0.00  0.00     0.218 C 
ATOM     11 BR1  LG1 d5015      45.374  39.486  28.772  0.00  0.00    -0.051 Br
ATOM     12  O2  LG1 d5015      44.901  34.442  30.853  0.00  0.00    -0.287 OA
ATOM     13  C10 LG1 d5015      42.758  32.817  31.765  0.00  0.00     0.025 C 
ENDROOT
BRANCH  13  14
ATOM     14  C11 LG1 d5015      41.719  31.901  32.128  0.00  0.00    -0.029 A 
ATOM     15  C14 LG1 d5015      40.953  32.050  33.262  0.00  0.00     0.061 A 
ATOM     16  S1  LG1 d5015      39.795  30.799  33.424  0.00  0.00    -0.113 SA
ATOM     17  C13 LG1 d5015      40.317  30.054  31.975  0.00  0.00     0.050 A 
ATOM     18  C12 LG1 d5015      41.350  30.744  31.382  0.00  0.00     0.019 A 
ENDBRANCH  13  14
TORSDOF 1
ENDMDL
