REMARK INTER + INTRA:          -8.429
REMARK INTER:                  -8.744
REMARK INTRA:                   0.315
REMARK UNBOUND:                 0.315
REMARK  2 active torsions:
REMARK  status: ('A' for Active; 'I' for Inactive)
REMARK    1  A    between atoms: C1_1  and  N1_15 
REMARK    2  A    between atoms: C7_9  and  C4_4 
ROOT
ATOM      1  C1  LG1 d5015      42.013  34.669  30.338  0.00  0.00     0.141 A 
ATOM      2  C2  LG1 d5015      40.634  34.471  30.262  0.00  0.00     0.187 A 
ATOM      3  C3  LG1 d5015      40.045  33.405  30.942  0.00  0.00     0.175 A 
ATOM      4  C4  LG1 d5015      40.834  32.536  31.696  0.00  0.00     0.131 A 
ATOM      5  C5  LG1 d5015      42.212  32.734  31.770  0.00  0.00     0.175 A 
ATOM      6  C6  LG1 d5015      42.801  33.800  31.092  0.00  0.00     0.187 A 
ATOM      7  F1  LG1 d5015      44.128  33.977  31.173  0.00  0.00    -0.200 F 
ATOM      8  F2  LG1 d5015      42.979  31.903  32.493  0.00  0.00    -0.202 F 
ATOM      9  F6  LG1 d5015      38.718  33.224  30.864  0.00  0.00    -0.202 F 
ATOM     10  F7  LG1 d5015      39.864  35.298  29.541  0.00  0.00    -0.200 F 
ENDROOT
BRANCH   1  11
ATOM     11  N1  LG1 d5015      42.598  35.725  29.664  0.00  0.00    -0.232 N 
ATOM     12  N2  LG1 d5015      43.568  35.488  28.764  0.00  0.00    -0.172 NA
ATOM     13  C10 LG1 d5015      43.885  36.710  28.330  0.00  0.00     0.053 A 
ATOM     14  C9  LG1 d5015      43.124  37.721  28.949  0.00  0.00     0.055 A 
ATOM     15  C11 LG1 d5015      44.934  36.875  27.309  0.00  0.00     0.072 C 
ATOM     16  C8  LG1 d5015      42.295  37.046  29.812  0.00  0.00     0.035 A 
ATOM     17  C12 LG1 d5015      41.264  37.549  30.740  0.00  0.00     0.070 C 
ENDBRANCH   1  11
BRANCH   4  18
ATOM     18  C7  LG1 d5015      40.203  31.396  32.422  0.00  0.00     0.423 C 
ATOM     19  F4  LG1 d5015      38.847  31.338  32.276  0.00  0.00    -0.166 F 
ATOM     20  F3  LG1 d5015      40.416  31.421  33.771  0.00  0.00    -0.166 F 
ATOM     21  F5  LG1 d5015      40.669  30.184  32.001  0.00  0.00    -0.166 F 
ENDBRANCH   4  18
TORSDOF 2
ENDMDL
