REMARK INTER + INTRA:          -7.900
REMARK INTER:                  -7.738
REMARK INTRA:                  -0.162
REMARK UNBOUND:                -0.168
REMARK  1 active torsions:
REMARK  status: ('A' for Active; 'I' for Inactive)
REMARK    1  A    between atoms: C10_13  and  C11_14 
ROOT
ATOM      1  C1  LG1 d5015      43.311  35.599  30.275  0.00  0.00     0.018 C 
ATOM      2  C2  LG1 d5015      43.242  34.296  30.984  0.00  0.00     0.193 C 
ATOM      3  C3  LG1 d5015      41.871  33.798  31.218  0.00  0.00     0.049 A 
ATOM      4  C4  LG1 d5015      41.666  32.641  31.972  0.00  0.00     0.037 A 
ATOM      5  C5  LG1 d5015      40.372  32.144  32.138  0.00  0.00     0.012 A 
ATOM      6  C6  LG1 d5015      39.288  32.793  31.545  0.00  0.00     0.022 A 
ATOM      7  C7  LG1 d5015      39.495  33.947  30.788  0.00  0.00     0.039 A 
ATOM      8  C8  LG1 d5015      40.783  34.461  30.638  0.00  0.00     0.083 A 
ATOM      9  O1  LG1 d5015      40.915  35.587  29.868  0.00  0.00    -0.346 OA
ATOM     10  C9  LG1 d5015      42.043  36.389  30.234  0.00  0.00     0.218 C 
ATOM     11 BR1  LG1 d5015      40.084  30.594  33.184  0.00  0.00    -0.051 Br
ATOM     12  O2  LG1 d5015      44.227  33.673  31.353  0.00  0.00    -0.287 OA
ATOM     13  C10 LG1 d5015      44.469  35.991  29.731  0.00  0.00     0.025 C 
ENDROOT
BRANCH  13  14
ATOM     14  C11 LG1 d5015      44.659  37.222  29.024  0.00  0.00    -0.029 A 
ATOM     15  C14 LG1 d5015      44.415  37.354  27.676  0.00  0.00     0.061 A 
ATOM     16  S1  LG1 d5015      44.732  38.941  27.118  0.00  0.00    -0.113 SA
ATOM     17  C13 LG1 d5015      45.197  39.457  28.682  0.00  0.00     0.050 A 
ATOM     18  C12 LG1 d5015      45.111  38.440  29.607  0.00  0.00     0.019 A 
ENDBRANCH  13  14
TORSDOF 1
ENDMDL
