REMARK INTER + INTRA:          -7.006
REMARK INTER:                  -7.011
REMARK INTRA:                   0.005
REMARK UNBOUND:                 0.005
REMARK  1 active torsions:
REMARK  status: ('A' for Active; 'I' for Inactive)
REMARK    1  A    between atoms: C10_13  and  C11_14 
ROOT
ATOM      1  C1  LG1 d5015      42.243  35.271  30.271  0.00  0.00     0.018 C 
ATOM      2  C2  LG1 d5015      42.086  36.684  29.843  0.00  0.00     0.193 C 
ATOM      3  C3  LG1 d5015      43.273  37.256  29.173  0.00  0.00     0.049 A 
ATOM      4  C4  LG1 d5015      43.296  38.607  28.823  0.00  0.00     0.037 A 
ATOM      5  C5  LG1 d5015      44.395  39.125  28.136  0.00  0.00     0.012 A 
ATOM      6  C6  LG1 d5015      45.463  38.296  27.791  0.00  0.00     0.022 A 
ATOM      7  C7  LG1 d5015      45.437  36.944  28.138  0.00  0.00     0.039 A 
ATOM      8  C8  LG1 d5015      44.351  36.426  28.843  0.00  0.00     0.083 A 
ATOM      9  O1  LG1 d5015      44.384  35.088  29.137  0.00  0.00    -0.346 OA
ATOM     10  C9  LG1 d5015      43.643  34.751  30.314  0.00  0.00     0.218 C 
ATOM     11 BR1  LG1 d5015      44.446  40.962  27.686  0.00  0.00    -0.051 Br
ATOM     12  O2  LG1 d5015      41.069  37.338  30.023  0.00  0.00    -0.287 OA
ATOM     13  C10 LG1 d5015      41.157  34.557  30.591  0.00  0.00     0.025 C 
ENDROOT
BRANCH  13  14
ATOM     14  C11 LG1 d5015      41.180  33.189  31.015  0.00  0.00    -0.029 A 
ATOM     15  C14 LG1 d5015      41.719  32.788  32.216  0.00  0.00     0.061 A 
ATOM     16  S1  LG1 d5015      41.597  31.096  32.442  0.00  0.00    -0.113 SA
ATOM     17  C13 LG1 d5015      40.822  30.895  30.930  0.00  0.00     0.050 A 
ATOM     18  C12 LG1 d5015      40.660  32.092  30.269  0.00  0.00     0.019 A 
ENDBRANCH  13  14
TORSDOF 1
ENDMDL
