REMARK INTER + INTRA:          -7.349
REMARK INTER:                  -7.181
REMARK INTRA:                  -0.168
REMARK UNBOUND:                -0.131
REMARK  1 active torsions:
REMARK  status: ('A' for Active; 'I' for Inactive)
REMARK    1  A    between atoms: C10_13  and  C11_14 
ROOT
ATOM      1  C1  LG1 d5015      41.778  36.373  29.894  0.00  0.00     0.018 C 
ATOM      2  C2  LG1 d5015      40.623  35.743  30.580  0.00  0.00     0.193 C 
ATOM      3  C3  LG1 d5015      40.879  34.375  31.080  0.00  0.00     0.049 A 
ATOM      4  C4  LG1 d5015      39.841  33.630  31.644  0.00  0.00     0.037 A 
ATOM      5  C5  LG1 d5015      40.105  32.364  32.168  0.00  0.00     0.012 A 
ATOM      6  C6  LG1 d5015      41.400  31.846  32.138  0.00  0.00     0.022 A 
ATOM      7  C7  LG1 d5015      42.437  32.593  31.578  0.00  0.00     0.039 A 
ATOM      8  C8  LG1 d5015      42.176  33.850  31.033  0.00  0.00     0.083 A 
ATOM      9  O1  LG1 d5015      43.242  34.536  30.515  0.00  0.00    -0.346 OA
ATOM     10  C9  LG1 d5015      42.875  35.449  29.475  0.00  0.00     0.218 C 
ATOM     11 BR1  LG1 d5015      38.698  31.336  32.905  0.00  0.00    -0.051 Br
ATOM     12  O2  LG1 d5015      39.540  36.291  30.729  0.00  0.00    -0.287 OA
ATOM     13  C10 LG1 d5015      41.778  37.695  29.687  0.00  0.00     0.025 C 
ENDROOT
BRANCH  13  14
ATOM     14  C11 LG1 d5015      42.832  38.416  29.040  0.00  0.00    -0.029 A 
ATOM     15  C14 LG1 d5015      42.824  38.704  27.693  0.00  0.00     0.061 A 
ATOM     16  S1  LG1 d5015      44.218  39.576  27.215  0.00  0.00    -0.113 SA
ATOM     17  C13 LG1 d5015      44.836  39.571  28.810  0.00  0.00     0.050 A 
ATOM     18  C12 LG1 d5015      43.998  38.919  29.687  0.00  0.00     0.019 A 
ENDBRANCH  13  14
TORSDOF 1
ENDMDL
