MODEL 1
REMARK VINA RESULT:    -8.052      0.000      0.000
REMARK INTER + INTRA:          -8.591
REMARK INTER:                  -8.424
REMARK INTRA:                  -0.167
REMARK UNBOUND:                -0.068
REMARK  1 active torsions:
REMARK  status: ('A' for Active; 'I' for Inactive)
REMARK    1  A    between atoms: C10_13  and  C11_14 
ROOT
ATOM      1  C1  LG1 d5015      42.571  33.914  31.017  0.00  0.00     0.018 C 
ATOM      2  C2  LG1 d5015      43.727  34.796  30.721  0.00  0.00     0.193 C 
ATOM      3  C3  LG1 d5015      43.360  36.145  30.241  0.00  0.00     0.049 A 
ATOM      4  C4  LG1 d5015      44.353  37.033  29.822  0.00  0.00     0.037 A 
ATOM      5  C5  LG1 d5015      44.004  38.325  29.428  0.00  0.00     0.012 A 
ATOM      6  C6  LG1 d5015      42.670  38.734  29.461  0.00  0.00     0.022 A 
ATOM      7  C7  LG1 d5015      41.679  37.848  29.884  0.00  0.00     0.039 A 
ATOM      8  C8  LG1 d5015      42.019  36.548  30.258  0.00  0.00     0.083 A 
ATOM      9  O1  LG1 d5015      40.999  35.736  30.679  0.00  0.00    -0.346 OA
ATOM     10  C9  LG1 d5015      41.256  34.346  30.453  0.00  0.00     0.218 C 
ATOM     11 BR1  LG1 d5015      45.340  39.523  28.829  0.00  0.00    -0.051 Br
ATOM     12  O2  LG1 d5015      44.893  34.454  30.855  0.00  0.00    -0.287 OA
ATOM     13  C10 LG1 d5015      42.758  32.807  31.746  0.00  0.00     0.025 C 
ENDROOT
BRANCH  13  14
ATOM     14  C11 LG1 d5015      41.724  31.881  32.097  0.00  0.00    -0.029 A 
ATOM     15  C14 LG1 d5015      40.975  31.997  33.246  0.00  0.00     0.061 A 
ATOM     16  S1  LG1 d5015      39.818  30.744  33.388  0.00  0.00    -0.113 SA
ATOM     17  C13 LG1 d5015      40.317  30.040  31.910  0.00  0.00     0.050 A 
ATOM     18  C12 LG1 d5015      41.343  30.747  31.323  0.00  0.00     0.019 A 
ENDBRANCH  13  14
TORSDOF 1
ENDMDL
MODEL 2
REMARK VINA RESULT:    -7.505      1.234      2.507
REMARK INTER + INTRA:          -8.012
REMARK INTER:                  -7.878
REMARK INTRA:                  -0.134
REMARK UNBOUND:                -0.068
REMARK  1 active torsions:
REMARK  status: ('A' for Active; 'I' for Inactive)
REMARK    1  A    between atoms: C10_13  and  C11_14 
ROOT
ATOM      1  C1  LG1 d5015      41.466  33.701  30.830  0.00  0.00     0.018 C 
ATOM      2  C2  LG1 d5015      41.343  35.044  30.211  0.00  0.00     0.193 C 
ATOM      3  C3  LG1 d5015      42.616  35.790  30.111  0.00  0.00     0.049 A 
ATOM      4  C4  LG1 d5015      42.620  37.109  29.651  0.00  0.00     0.037 A 
ATOM      5  C5  LG1 d5015      43.832  37.785  29.503  0.00  0.00     0.012 A 
ATOM      6  C6  LG1 d5015      45.035  37.146  29.802  0.00  0.00     0.022 A 
ATOM      7  C7  LG1 d5015      45.030  35.827  30.258  0.00  0.00     0.039 A 
ATOM      8  C8  LG1 d5015      43.821  35.153  30.429  0.00  0.00     0.083 A 
ATOM      9  O1  LG1 d5015      43.890  33.856  30.864  0.00  0.00    -0.346 OA
ATOM     10  C9  LG1 d5015      42.727  33.441  31.588  0.00  0.00     0.218 C 
ATOM     11 BR1  LG1 d5015      43.842  39.582  28.910  0.00  0.00    -0.051 Br
ATOM     12  O2  LG1 d5015      40.288  35.514  29.812  0.00  0.00    -0.287 OA
ATOM     13  C10 LG1 d5015      40.469  32.819  30.688  0.00  0.00     0.025 C 
ENDROOT
BRANCH  13  14
ATOM     14  C11 LG1 d5015      40.471  31.496  31.236  0.00  0.00    -0.029 A 
ATOM     15  C14 LG1 d5015      40.767  30.378  30.489  0.00  0.00     0.061 A 
ATOM     16  S1  LG1 d5015      40.689  28.944  31.421  0.00  0.00    -0.113 SA
ATOM     17  C13 LG1 d5015      40.257  29.816  32.829  0.00  0.00     0.050 A 
ATOM     18  C12 LG1 d5015      40.176  31.171  32.592  0.00  0.00     0.019 A 
ENDBRANCH  13  14
TORSDOF 1
ENDMDL
MODEL 3
REMARK VINA RESULT:    -7.429      3.962      6.589
REMARK INTER + INTRA:          -7.932
REMARK INTER:                  -7.769
REMARK INTRA:                  -0.163
REMARK UNBOUND:                -0.068
REMARK  1 active torsions:
REMARK  status: ('A' for Active; 'I' for Inactive)
REMARK    1  A    between atoms: C10_13  and  C11_14 
ROOT
ATOM      1  C1  LG1 d5015      43.260  35.615  30.230  0.00  0.00     0.018 C 
ATOM      2  C2  LG1 d5015      43.226  34.309  30.935  0.00  0.00     0.193 C 
ATOM      3  C3  LG1 d5015      41.867  33.785  31.188  0.00  0.00     0.049 A 
ATOM      4  C4  LG1 d5015      41.695  32.622  31.942  0.00  0.00     0.037 A 
ATOM      5  C5  LG1 d5015      40.413  32.101  32.124  0.00  0.00     0.012 A 
ATOM      6  C6  LG1 d5015      39.309  32.731  31.550  0.00  0.00     0.022 A 
ATOM      7  C7  LG1 d5015      39.483  33.891  30.794  0.00  0.00     0.039 A 
ATOM      8  C8  LG1 d5015      40.759  34.429  30.626  0.00  0.00     0.083 A 
ATOM      9  O1  LG1 d5015      40.859  35.559  29.858  0.00  0.00    -0.346 OA
ATOM     10  C9  LG1 d5015      41.977  36.382  30.209  0.00  0.00     0.218 C 
ATOM     11 BR1  LG1 d5015      40.169  30.543  33.170  0.00  0.00    -0.051 Br
ATOM     12  O2  LG1 d5015      44.227  33.703  31.287  0.00  0.00    -0.287 OA
ATOM     13  C10 LG1 d5015      44.402  36.030  29.669  0.00  0.00     0.025 C 
ENDROOT
BRANCH  13  14
ATOM     14  C11 LG1 d5015      44.559  37.266  28.963  0.00  0.00    -0.029 A 
ATOM     15  C14 LG1 d5015      44.300  37.396  27.618  0.00  0.00     0.061 A 
ATOM     16  S1  LG1 d5015      44.577  38.991  27.062  0.00  0.00    -0.113 SA
ATOM     17  C13 LG1 d5015      45.045  39.513  28.623  0.00  0.00     0.050 A 
ATOM     18  C12 LG1 d5015      44.990  38.492  29.546  0.00  0.00     0.019 A 
ENDBRANCH  13  14
TORSDOF 1
ENDMDL
MODEL 4
REMARK VINA RESULT:    -6.874      3.985      7.000
REMARK INTER + INTRA:          -7.344
REMARK INTER:                  -7.176
REMARK INTRA:                  -0.168
REMARK UNBOUND:                -0.068
REMARK  1 active torsions:
REMARK  status: ('A' for Active; 'I' for Inactive)
REMARK    1  A    between atoms: C10_13  and  C11_14 
ROOT
ATOM      1  C1  LG1 d5015      41.784  36.363  29.893  0.00  0.00     0.018 C 
ATOM      2  C2  LG1 d5015      40.629  35.739  30.586  0.00  0.00     0.193 C 
ATOM      3  C3  LG1 d5015      40.883  34.372  31.089  0.00  0.00     0.049 A 
ATOM      4  C4  LG1 d5015      39.846  33.632  31.660  0.00  0.00     0.037 A 
ATOM      5  C5  LG1 d5015      40.108  32.367  32.187  0.00  0.00     0.012 A 
ATOM      6  C6  LG1 d5015      41.402  31.845  32.154  0.00  0.00     0.022 A 
ATOM      7  C7  LG1 d5015      42.439  32.587  31.586  0.00  0.00     0.039 A 
ATOM      8  C8  LG1 d5015      42.178  33.843  31.038  0.00  0.00     0.083 A 
ATOM      9  O1  LG1 d5015      43.245  34.524  30.513  0.00  0.00    -0.346 OA
ATOM     10  C9  LG1 d5015      42.876  35.434  29.472  0.00  0.00     0.218 C 
ATOM     11 BR1  LG1 d5015      38.701  31.347  32.934  0.00  0.00    -0.051 Br
ATOM     12  O2  LG1 d5015      39.549  36.292  30.738  0.00  0.00    -0.287 OA
ATOM     13  C10 LG1 d5015      41.787  37.685  29.682  0.00  0.00     0.025 C 
ENDROOT
BRANCH  13  14
ATOM     14  C11 LG1 d5015      42.841  38.401  29.027  0.00  0.00    -0.029 A 
ATOM     15  C14 LG1 d5015      42.825  38.688  27.681  0.00  0.00     0.061 A 
ATOM     16  S1  LG1 d5015      44.219  39.554  27.193  0.00  0.00    -0.113 SA
ATOM     17  C13 LG1 d5015      44.849  39.546  28.784  0.00  0.00     0.050 A 
ATOM     18  C12 LG1 d5015      44.013  38.898  29.667  0.00  0.00     0.019 A 
ENDBRANCH  13  14
TORSDOF 1
ENDMDL
MODEL 5
REMARK VINA RESULT:    -6.657      1.305      2.515
REMARK INTER + INTRA:          -7.115
REMARK INTER:                  -7.046
REMARK INTRA:                  -0.068
REMARK UNBOUND:                -0.068
REMARK  1 active torsions:
REMARK  status: ('A' for Active; 'I' for Inactive)
REMARK    1  A    between atoms: C10_13  and  C11_14 
ROOT
ATOM      1  C1  LG1 d5015      42.186  35.111  30.413  0.00  0.00     0.018 C 
ATOM      2  C2  LG1 d5015      42.048  36.506  29.926  0.00  0.00     0.193 C 
ATOM      3  C3  LG1 d5015      43.282  37.076  29.345  0.00  0.00     0.049 A 
ATOM      4  C4  LG1 d5015      43.317  38.416  28.953  0.00  0.00     0.037 A 
ATOM      5  C5  LG1 d5015      44.466  38.930  28.349  0.00  0.00     0.012 A 
ATOM      6  C6  LG1 d5015      45.571  38.108  28.128  0.00  0.00     0.022 A 
ATOM      7  C7  LG1 d5015      45.534  36.768  28.516  0.00  0.00     0.039 A 
ATOM      8  C8  LG1 d5015      44.397  36.255  29.140  0.00  0.00     0.083 A 
ATOM      9  O1  LG1 d5015      44.421  34.928  29.480  0.00  0.00    -0.346 OA
ATOM     10  C9  LG1 d5015      43.584  34.616  30.598  0.00  0.00     0.218 C 
ATOM     11 BR1  LG1 d5015      44.531  40.751  27.844  0.00  0.00    -0.051 Br
ATOM     12  O2  LG1 d5015      41.010  37.149  29.993  0.00  0.00    -0.287 OA
ATOM     13  C10 LG1 d5015      41.086  34.389  30.660  0.00  0.00     0.025 C 
ENDROOT
BRANCH  13  14
ATOM     14  C11 LG1 d5015      41.090  33.037  31.130  0.00  0.00    -0.029 A 
ATOM     15  C14 LG1 d5015      41.379  32.699  32.433  0.00  0.00     0.061 A 
ATOM     16  S1  LG1 d5015      41.301  31.009  32.691  0.00  0.00    -0.113 SA
ATOM     17  C13 LG1 d5015      40.880  30.723  31.057  0.00  0.00     0.050 A 
ATOM     18  C12 LG1 d5015      40.800  31.892  30.332  0.00  0.00     0.019 A 
ENDBRANCH  13  14
TORSDOF 1
ENDMDL
