REMARK INTER + INTRA:          -8.012
REMARK INTER:                  -7.878
REMARK INTRA:                  -0.134
REMARK UNBOUND:                -0.068
REMARK  1 active torsions:
REMARK  status: ('A' for Active; 'I' for Inactive)
REMARK    1  A    between atoms: C10_13  and  C11_14 
ROOT
ATOM      1  C1  LG1 d5015      41.466  33.701  30.830  0.00  0.00     0.018 C 
ATOM      2  C2  LG1 d5015      41.343  35.044  30.211  0.00  0.00     0.193 C 
ATOM      3  C3  LG1 d5015      42.616  35.790  30.111  0.00  0.00     0.049 A 
ATOM      4  C4  LG1 d5015      42.620  37.109  29.651  0.00  0.00     0.037 A 
ATOM      5  C5  LG1 d5015      43.832  37.785  29.503  0.00  0.00     0.012 A 
ATOM      6  C6  LG1 d5015      45.035  37.146  29.802  0.00  0.00     0.022 A 
ATOM      7  C7  LG1 d5015      45.030  35.827  30.258  0.00  0.00     0.039 A 
ATOM      8  C8  LG1 d5015      43.821  35.153  30.429  0.00  0.00     0.083 A 
ATOM      9  O1  LG1 d5015      43.890  33.856  30.864  0.00  0.00    -0.346 OA
ATOM     10  C9  LG1 d5015      42.727  33.441  31.588  0.00  0.00     0.218 C 
ATOM     11 BR1  LG1 d5015      43.842  39.582  28.910  0.00  0.00    -0.051 Br
ATOM     12  O2  LG1 d5015      40.288  35.514  29.812  0.00  0.00    -0.287 OA
ATOM     13  C10 LG1 d5015      40.469  32.819  30.688  0.00  0.00     0.025 C 
ENDROOT
BRANCH  13  14
ATOM     14  C11 LG1 d5015      40.471  31.496  31.236  0.00  0.00    -0.029 A 
ATOM     15  C14 LG1 d5015      40.767  30.378  30.489  0.00  0.00     0.061 A 
ATOM     16  S1  LG1 d5015      40.689  28.944  31.421  0.00  0.00    -0.113 SA
ATOM     17  C13 LG1 d5015      40.257  29.816  32.829  0.00  0.00     0.050 A 
ATOM     18  C12 LG1 d5015      40.176  31.171  32.592  0.00  0.00     0.019 A 
ENDBRANCH  13  14
TORSDOF 1
ENDMDL
