REMARK INTER + INTRA:         -10.927
REMARK INTER:                 -10.430
REMARK INTRA:                  -0.497
REMARK UNBOUND:                 0.315
REMARK  2 active torsions:
REMARK  status: ('A' for Active; 'I' for Inactive)
REMARK    1  A    between atoms: C1_1  and  N1_15 
REMARK    2  A    between atoms: C7_9  and  C4_4 
ROOT
ATOM      1  C1  LG1 d5015      41.787  32.881  31.250  0.00  0.00     0.141 A 
ATOM      2  C2  LG1 d5015      40.937  33.810  30.650  0.00  0.00     0.187 A 
ATOM      3  C3  LG1 d5015      41.446  35.020  30.180  0.00  0.00     0.175 A 
ATOM      4  C4  LG1 d5015      42.806  35.302  30.310  0.00  0.00     0.131 A 
ATOM      5  C5  LG1 d5015      43.656  34.373  30.910  0.00  0.00     0.175 A 
ATOM      6  C6  LG1 d5015      43.147  33.163  31.379  0.00  0.00     0.187 A 
ATOM      7  F1  LG1 d5015      43.976  32.280  31.954  0.00  0.00    -0.200 F 
ATOM      8  F2  LG1 d5015      44.965  34.636  31.039  0.00  0.00    -0.202 F 
ATOM      9  F6  LG1 d5015      40.620  35.906  29.604  0.00  0.00    -0.202 F 
ATOM     10  F7  LG1 d5015      39.627  33.552  30.519  0.00  0.00    -0.200 F 
ENDROOT
BRANCH   1  11
ATOM     11  N1  LG1 d5015      41.283  31.681  31.717  0.00  0.00    -0.232 N 
ATOM     12  N2  LG1 d5015      41.408  30.569  30.972  0.00  0.00    -0.172 NA
ATOM     13  C10 LG1 d5015      40.819  29.634  31.722  0.00  0.00     0.053 A 
ATOM     14  C9  LG1 d5015      40.320  30.145  32.936  0.00  0.00     0.055 A 
ATOM     15  C11 LG1 d5015      40.752  28.244  31.240  0.00  0.00     0.072 C 
ATOM     16  C8  LG1 d5015      40.638  31.481  32.901  0.00  0.00     0.035 A 
ATOM     17  C12 LG1 d5015      40.384  32.552  33.884  0.00  0.00     0.070 C 
ENDBRANCH   1  11
BRANCH   4  18
ATOM     18  C7  LG1 d5015      43.350  36.597  29.807  0.00  0.00     0.423 C 
ATOM     19  F4  LG1 d5015      44.636  36.838  30.198  0.00  0.00    -0.166 F 
ATOM     20  F3  LG1 d5015      42.640  37.686  30.223  0.00  0.00    -0.166 F 
ATOM     21  F5  LG1 d5015      43.362  36.667  28.444  0.00  0.00    -0.166 F 
ENDBRANCH   4  18
TORSDOF 2
ENDMDL
