REMARK INTER + INTRA:          -7.344
REMARK INTER:                  -7.176
REMARK INTRA:                  -0.168
REMARK UNBOUND:                -0.068
REMARK  1 active torsions:
REMARK  status: ('A' for Active; 'I' for Inactive)
REMARK    1  A    between atoms: C10_13  and  C11_14 
ROOT
ATOM      1  C1  LG1 d5015      41.784  36.363  29.893  0.00  0.00     0.018 C 
ATOM      2  C2  LG1 d5015      40.629  35.739  30.586  0.00  0.00     0.193 C 
ATOM      3  C3  LG1 d5015      40.883  34.372  31.089  0.00  0.00     0.049 A 
ATOM      4  C4  LG1 d5015      39.846  33.632  31.660  0.00  0.00     0.037 A 
ATOM      5  C5  LG1 d5015      40.108  32.367  32.187  0.00  0.00     0.012 A 
ATOM      6  C6  LG1 d5015      41.402  31.845  32.154  0.00  0.00     0.022 A 
ATOM      7  C7  LG1 d5015      42.439  32.587  31.586  0.00  0.00     0.039 A 
ATOM      8  C8  LG1 d5015      42.178  33.843  31.038  0.00  0.00     0.083 A 
ATOM      9  O1  LG1 d5015      43.245  34.524  30.513  0.00  0.00    -0.346 OA
ATOM     10  C9  LG1 d5015      42.876  35.434  29.472  0.00  0.00     0.218 C 
ATOM     11 BR1  LG1 d5015      38.701  31.347  32.934  0.00  0.00    -0.051 Br
ATOM     12  O2  LG1 d5015      39.549  36.292  30.738  0.00  0.00    -0.287 OA
ATOM     13  C10 LG1 d5015      41.787  37.685  29.682  0.00  0.00     0.025 C 
ENDROOT
BRANCH  13  14
ATOM     14  C11 LG1 d5015      42.841  38.401  29.027  0.00  0.00    -0.029 A 
ATOM     15  C14 LG1 d5015      42.825  38.688  27.681  0.00  0.00     0.061 A 
ATOM     16  S1  LG1 d5015      44.219  39.554  27.193  0.00  0.00    -0.113 SA
ATOM     17  C13 LG1 d5015      44.849  39.546  28.784  0.00  0.00     0.050 A 
ATOM     18  C12 LG1 d5015      44.013  38.898  29.667  0.00  0.00     0.019 A 
ENDBRANCH  13  14
TORSDOF 1
ENDMDL
