MODEL 1
REMARK VINA RESULT:    -5.923      0.000      0.000
REMARK INTER + INTRA:          -6.449
REMARK INTER:                  -6.288
REMARK INTRA:                  -0.161
REMARK UNBOUND:                -0.179
REMARK  1 active torsions:
REMARK  status: ('A' for Active; 'I' for Inactive)
REMARK    1  A    between atoms: C1_1  and  N1_10 
ROOT
ATOM      1  C1  LG1 d5015      41.428  33.338  31.192  0.00  0.00     0.056 A 
ATOM      2  C2  LG1 d5015      40.540  34.286  30.684  0.00  0.00    -0.033 A 
ATOM      3  C3  LG1 d5015      41.021  35.505  30.205  0.00  0.00     0.028 A 
ATOM      4  C4  LG1 d5015      42.388  35.776  30.234  0.00  0.00     0.012 A 
ATOM      5  C5  LG1 d5015      43.277  34.827  30.745  0.00  0.00     0.028 A 
ATOM      6  C6  LG1 d5015      42.795  33.610  31.223  0.00  0.00    -0.033 A 
ATOM      7  C7  LG1 d5015      43.771  32.614  31.763  0.00  0.00     0.050 C 
ATOM      8 BR1  LG1 d5015      43.039  37.429  29.587  0.00  0.00    -0.051 Br
ATOM      9  C8  LG1 d5015      39.069  34.024  30.637  0.00  0.00     0.050 C 
ENDROOT
BRANCH   1  10
ATOM     10  N1  LG1 d5015      40.933  32.083  31.684  0.00  0.00    -0.265 N 
ATOM     11  C11 LG1 d5015      40.485  31.876  32.989  0.00  0.00     0.148 C 
ATOM     12  S2  LG1 d5015      40.172  32.975  34.214  0.00  0.00    -0.052 SA
ATOM     13  S1  LG1 d5015      40.142  30.166  33.224  0.00  0.00    -0.090 SA
ATOM     14  C10 LG1 d5015      40.308  29.767  31.484  0.00  0.00     0.185 C 
ATOM     15  C9  LG1 d5015      40.905  30.976  30.824  0.00  0.00     0.239 C 
ATOM     16  O1  LG1 d5015      41.316  30.919  29.668  0.00  0.00    -0.272 OA
ENDBRANCH   1  10
TORSDOF 1
ENDMDL
MODEL 2
REMARK VINA RESULT:    -5.914      0.032      2.152
REMARK INTER + INTRA:          -6.438
REMARK INTER:                  -6.275
REMARK INTRA:                  -0.163
REMARK UNBOUND:                -0.179
REMARK  1 active torsions:
REMARK  status: ('A' for Active; 'I' for Inactive)
REMARK    1  A    between atoms: C1_1  and  N1_10 
ROOT
ATOM      1  C1  LG1 d5015      41.422  33.342  31.192  0.00  0.00     0.056 A 
ATOM      2  C2  LG1 d5015      42.793  33.596  31.210  0.00  0.00    -0.033 A 
ATOM      3  C3  LG1 d5015      43.284  34.812  30.731  0.00  0.00     0.028 A 
ATOM      4  C4  LG1 d5015      42.403  35.772  30.235  0.00  0.00     0.012 A 
ATOM      5  C5  LG1 d5015      41.031  35.517  30.216  0.00  0.00     0.028 A 
ATOM      6  C6  LG1 d5015      40.542  34.303  30.694  0.00  0.00    -0.033 A 
ATOM      7  C7  LG1 d5015      39.067  34.059  30.661  0.00  0.00     0.050 C 
ATOM      8 BR1  LG1 d5015      43.068  37.418  29.585  0.00  0.00    -0.051 Br
ATOM      9  C8  LG1 d5015      43.761  32.587  31.738  0.00  0.00     0.050 C 
ENDROOT
BRANCH   1  10
ATOM     10  N1  LG1 d5015      40.917  32.092  31.685  0.00  0.00    -0.265 N 
ATOM     11  C11 LG1 d5015      40.481  31.887  32.995  0.00  0.00     0.148 C 
ATOM     12  S2  LG1 d5015      40.197  32.986  34.227  0.00  0.00    -0.052 SA
ATOM     13  S1  LG1 d5015      40.117  30.181  33.228  0.00  0.00    -0.090 SA
ATOM     14  C10 LG1 d5015      40.259  29.786  31.486  0.00  0.00     0.185 C 
ATOM     15  C9  LG1 d5015      40.864  30.988  30.823  0.00  0.00     0.239 C 
ATOM     16  O1  LG1 d5015      41.261  30.929  29.662  0.00  0.00    -0.272 OA
ENDBRANCH   1  10
TORSDOF 1
ENDMDL
MODEL 3
REMARK VINA RESULT:    -5.329      6.065      7.842
REMARK INTER + INTRA:          -5.819
REMARK INTER:                  -5.716
REMARK INTRA:                  -0.103
REMARK UNBOUND:                -0.179
REMARK  1 active torsions:
REMARK  status: ('A' for Active; 'I' for Inactive)
REMARK    1  A    between atoms: C1_1  and  N1_10 
ROOT
ATOM      1  C1  LG1 d5015      44.229  37.435  28.566  0.00  0.00     0.056 A 
ATOM      2  C2  LG1 d5015      43.125  37.295  29.406  0.00  0.00    -0.033 A 
ATOM      3  C3  LG1 d5015      42.996  36.157  30.203  0.00  0.00     0.028 A 
ATOM      4  C4  LG1 d5015      43.970  35.160  30.160  0.00  0.00     0.012 A 
ATOM      5  C5  LG1 d5015      45.075  35.300  29.317  0.00  0.00     0.028 A 
ATOM      6  C6  LG1 d5015      45.203  36.437  28.521  0.00  0.00    -0.033 A 
ATOM      7  C7  LG1 d5015      46.396  36.559  27.630  0.00  0.00     0.050 C 
ATOM      8 BR1  LG1 d5015      43.794  33.618  31.239  0.00  0.00    -0.051 Br
ATOM      9  C8  LG1 d5015      42.066  38.347  29.476  0.00  0.00     0.050 C 
ENDROOT
BRANCH   1  10
ATOM     10  N1  LG1 d5015      44.363  38.606  27.746  0.00  0.00    -0.265 N 
ATOM     11  C11 LG1 d5015      44.037  38.654  26.391  0.00  0.00     0.148 C 
ATOM     12  S2  LG1 d5015      43.228  37.545  25.431  0.00  0.00    -0.052 SA
ATOM     13  S1  LG1 d5015      44.520  40.212  25.729  0.00  0.00    -0.090 SA
ATOM     14  C10 LG1 d5015      44.885  40.920  27.334  0.00  0.00     0.185 C 
ATOM     15  C9  LG1 d5015      44.867  39.784  28.316  0.00  0.00     0.239 C 
ATOM     16  O1  LG1 d5015      45.279  39.942  29.462  0.00  0.00    -0.272 OA
ENDBRANCH   1  10
TORSDOF 1
ENDMDL
MODEL 4
REMARK VINA RESULT:    -5.317      6.053      8.068
REMARK INTER + INTRA:          -5.807
REMARK INTER:                  -5.720
REMARK INTRA:                  -0.087
REMARK UNBOUND:                -0.179
REMARK  1 active torsions:
REMARK  status: ('A' for Active; 'I' for Inactive)
REMARK    1  A    between atoms: C1_1  and  N1_10 
ROOT
ATOM      1  C1  LG1 d5015      44.235  37.421  28.584  0.00  0.00     0.056 A 
ATOM      2  C2  LG1 d5015      45.209  36.425  28.531  0.00  0.00    -0.033 A 
ATOM      3  C3  LG1 d5015      45.083  35.283  29.323  0.00  0.00     0.028 A 
ATOM      4  C4  LG1 d5015      43.983  35.138  30.168  0.00  0.00     0.012 A 
ATOM      5  C5  LG1 d5015      43.008  36.137  30.222  0.00  0.00     0.028 A 
ATOM      6  C6  LG1 d5015      43.136  37.277  29.430  0.00  0.00    -0.033 A 
ATOM      7  C7  LG1 d5015      42.076  38.329  29.509  0.00  0.00     0.050 C 
ATOM      8 BR1  LG1 d5015      43.813  33.592  31.242  0.00  0.00    -0.051 Br
ATOM      9  C8  LG1 d5015      46.398  36.551  27.634  0.00  0.00     0.050 C 
ENDROOT
BRANCH   1  10
ATOM     10  N1  LG1 d5015      44.364  38.596  27.768  0.00  0.00    -0.265 N 
ATOM     11  C11 LG1 d5015      44.042  38.645  26.411  0.00  0.00     0.148 C 
ATOM     12  S2  LG1 d5015      43.243  37.533  25.447  0.00  0.00    -0.052 SA
ATOM     13  S1  LG1 d5015      44.517  40.207  25.755  0.00  0.00    -0.090 SA
ATOM     14  C10 LG1 d5015      44.872  40.914  27.363  0.00  0.00     0.185 C 
ATOM     15  C9  LG1 d5015      44.859  39.776  28.342  0.00  0.00     0.239 C 
ATOM     16  O1  LG1 d5015      45.266  39.933  29.490  0.00  0.00    -0.272 OA
ENDBRANCH   1  10
TORSDOF 1
ENDMDL
MODEL 5
REMARK VINA RESULT:    -4.941      1.625      3.020
REMARK INTER + INTRA:          -5.409
REMARK INTER:                  -5.230
REMARK INTRA:                  -0.179
REMARK UNBOUND:                -0.179
REMARK  1 active torsions:
REMARK  status: ('A' for Active; 'I' for Inactive)
REMARK    1  A    between atoms: C1_1  and  N1_10 
ROOT
ATOM      1  C1  LG1 d5015      41.306  33.427  31.304  0.00  0.00     0.056 A 
ATOM      2  C2  LG1 d5015      42.686  33.621  31.234  0.00  0.00    -0.033 A 
ATOM      3  C3  LG1 d5015      43.198  34.771  30.633  0.00  0.00     0.028 A 
ATOM      4  C4  LG1 d5015      42.333  35.727  30.104  0.00  0.00     0.012 A 
ATOM      5  C5  LG1 d5015      40.952  35.532  30.173  0.00  0.00     0.028 A 
ATOM      6  C6  LG1 d5015      40.440  34.383  30.773  0.00  0.00    -0.033 A 
ATOM      7  C7  LG1 d5015      38.958  34.202  30.833  0.00  0.00     0.050 C 
ATOM      8 BR1  LG1 d5015      43.028  37.285  29.289  0.00  0.00    -0.051 Br
ATOM      9  C8  LG1 d5015      43.639  32.615  31.794  0.00  0.00     0.050 C 
ENDROOT
BRANCH   1  10
ATOM     10  N1  LG1 d5015      40.778  32.244  31.923  0.00  0.00    -0.265 N 
ATOM     11  C11 LG1 d5015      40.555  31.042  31.250  0.00  0.00     0.148 C 
ATOM     12  S2  LG1 d5015      41.018  30.558  29.715  0.00  0.00    -0.052 SA
ATOM     13  S1  LG1 d5015      39.736  29.915  32.325  0.00  0.00    -0.090 SA
ATOM     14  C10 LG1 d5015      39.961  30.943  33.776  0.00  0.00     0.185 C 
ATOM     15  C9  LG1 d5015      40.441  32.277  33.283  0.00  0.00     0.239 C 
ATOM     16  O1  LG1 d5015      40.489  33.243  34.041  0.00  0.00    -0.272 OA
ENDBRANCH   1  10
TORSDOF 1
ENDMDL
