MODEL 1
REMARK VINA RESULT:    -7.974      0.000      0.000
REMARK INTER + INTRA:          -8.608
REMARK INTER:                  -8.443
REMARK INTRA:                  -0.166
REMARK UNBOUND:                -0.168
REMARK  1 active torsions:
REMARK  status: ('A' for Active; 'I' for Inactive)
REMARK    1  A    between atoms: C10_13  and  C11_14 
ROOT
ATOM      1  C1  LG1 d5015      42.559  33.902  31.005  0.00  0.00     0.018 C 
ATOM      2  C2  LG1 d5015      43.719  34.774  30.693  0.00  0.00     0.193 C 
ATOM      3  C3  LG1 d5015      43.357  36.126  30.216  0.00  0.00     0.049 A 
ATOM      4  C4  LG1 d5015      44.352  37.004  29.782  0.00  0.00     0.037 A 
ATOM      5  C5  LG1 d5015      44.008  38.299  29.390  0.00  0.00     0.012 A 
ATOM      6  C6  LG1 d5015      42.679  38.719  29.440  0.00  0.00     0.022 A 
ATOM      7  C7  LG1 d5015      41.685  37.841  29.878  0.00  0.00     0.039 A 
ATOM      8  C8  LG1 d5015      42.020  36.539  30.250  0.00  0.00     0.083 A 
ATOM      9  O1  LG1 d5015      40.999  35.737  30.685  0.00  0.00    -0.346 OA
ATOM     10  C9  LG1 d5015      41.241  34.344  30.458  0.00  0.00     0.218 C 
ATOM     11 BR1  LG1 d5015      45.346  39.484  28.772  0.00  0.00    -0.051 Br
ATOM     12  O2  LG1 d5015      44.884  34.423  30.812  0.00  0.00    -0.287 OA
ATOM     13  C10 LG1 d5015      42.747  32.795  31.734  0.00  0.00     0.025 C 
ENDROOT
BRANCH  13  14
ATOM     14  C11 LG1 d5015      41.710  31.878  32.100  0.00  0.00    -0.029 A 
ATOM     15  C14 LG1 d5015      40.960  32.017  33.245  0.00  0.00     0.061 A 
ATOM     16  S1  LG1 d5015      39.800  30.768  33.409  0.00  0.00    -0.113 SA
ATOM     17  C13 LG1 d5015      40.299  30.037  31.944  0.00  0.00     0.050 A 
ATOM     18  C12 LG1 d5015      41.326  30.731  31.345  0.00  0.00     0.019 A 
ENDBRANCH  13  14
TORSDOF 1
ENDMDL
MODEL 2
REMARK VINA RESULT:    -7.389      1.236      2.508
REMARK INTER + INTRA:          -7.989
REMARK INTER:                  -7.855
REMARK INTRA:                  -0.134
REMARK UNBOUND:                -0.168
REMARK  1 active torsions:
REMARK  status: ('A' for Active; 'I' for Inactive)
REMARK    1  A    between atoms: C10_13  and  C11_14 
ROOT
ATOM      1  C1  LG1 d5015      41.459  33.696  30.833  0.00  0.00     0.018 C 
ATOM      2  C2  LG1 d5015      41.334  35.044  30.224  0.00  0.00     0.193 C 
ATOM      3  C3  LG1 d5015      42.608  35.783  30.107  0.00  0.00     0.049 A 
ATOM      4  C4  LG1 d5015      42.612  37.105  29.655  0.00  0.00     0.037 A 
ATOM      5  C5  LG1 d5015      43.825  37.775  29.489  0.00  0.00     0.012 A 
ATOM      6  C6  LG1 d5015      45.030  37.127  29.763  0.00  0.00     0.022 A 
ATOM      7  C7  LG1 d5015      45.025  35.805  30.211  0.00  0.00     0.039 A 
ATOM      8  C8  LG1 d5015      43.815  35.137  30.399  0.00  0.00     0.083 A 
ATOM      9  O1  LG1 d5015      43.884  33.837  30.824  0.00  0.00    -0.346 OA
ATOM     10  C9  LG1 d5015      42.732  33.424  31.566  0.00  0.00     0.218 C 
ATOM     11 BR1  LG1 d5015      43.836  39.575  28.908  0.00  0.00    -0.051 Br
ATOM     12  O2  LG1 d5015      40.274  35.522  29.847  0.00  0.00    -0.287 OA
ATOM     13  C10 LG1 d5015      40.455  32.820  30.703  0.00  0.00     0.025 C 
ENDROOT
BRANCH  13  14
ATOM     14  C11 LG1 d5015      40.459  31.494  31.242  0.00  0.00    -0.029 A 
ATOM     15  C14 LG1 d5015      40.737  30.380  30.484  0.00  0.00     0.061 A 
ATOM     16  S1  LG1 d5015      40.666  28.940  31.407  0.00  0.00    -0.113 SA
ATOM     17  C13 LG1 d5015      40.262  29.805  32.827  0.00  0.00     0.050 A 
ATOM     18  C12 LG1 d5015      40.184  31.161  32.600  0.00  0.00     0.019 A 
ENDBRANCH  13  14
TORSDOF 1
ENDMDL
MODEL 3
REMARK VINA RESULT:    -7.305      3.962      6.583
REMARK INTER + INTRA:          -7.900
REMARK INTER:                  -7.738
REMARK INTRA:                  -0.162
REMARK UNBOUND:                -0.168
REMARK  1 active torsions:
REMARK  status: ('A' for Active; 'I' for Inactive)
REMARK    1  A    between atoms: C10_13  and  C11_14 
ROOT
ATOM      1  C1  LG1 d5015      43.311  35.599  30.275  0.00  0.00     0.018 C 
ATOM      2  C2  LG1 d5015      43.242  34.296  30.984  0.00  0.00     0.193 C 
ATOM      3  C3  LG1 d5015      41.871  33.798  31.218  0.00  0.00     0.049 A 
ATOM      4  C4  LG1 d5015      41.666  32.641  31.972  0.00  0.00     0.037 A 
ATOM      5  C5  LG1 d5015      40.372  32.144  32.138  0.00  0.00     0.012 A 
ATOM      6  C6  LG1 d5015      39.288  32.793  31.545  0.00  0.00     0.022 A 
ATOM      7  C7  LG1 d5015      39.495  33.947  30.788  0.00  0.00     0.039 A 
ATOM      8  C8  LG1 d5015      40.783  34.461  30.638  0.00  0.00     0.083 A 
ATOM      9  O1  LG1 d5015      40.915  35.587  29.868  0.00  0.00    -0.346 OA
ATOM     10  C9  LG1 d5015      42.043  36.389  30.234  0.00  0.00     0.218 C 
ATOM     11 BR1  LG1 d5015      40.084  30.594  33.184  0.00  0.00    -0.051 Br
ATOM     12  O2  LG1 d5015      44.227  33.673  31.353  0.00  0.00    -0.287 OA
ATOM     13  C10 LG1 d5015      44.469  35.991  29.731  0.00  0.00     0.025 C 
ENDROOT
BRANCH  13  14
ATOM     14  C11 LG1 d5015      44.659  37.222  29.024  0.00  0.00    -0.029 A 
ATOM     15  C14 LG1 d5015      44.415  37.354  27.676  0.00  0.00     0.061 A 
ATOM     16  S1  LG1 d5015      44.732  38.941  27.118  0.00  0.00    -0.113 SA
ATOM     17  C13 LG1 d5015      45.197  39.457  28.682  0.00  0.00     0.050 A 
ATOM     18  C12 LG1 d5015      45.111  38.440  29.607  0.00  0.00     0.019 A 
ENDBRANCH  13  14
TORSDOF 1
ENDMDL
MODEL 4
REMARK VINA RESULT:    -6.789      3.984      7.002
REMARK INTER + INTRA:          -7.354
REMARK INTER:                  -7.186
REMARK INTRA:                  -0.168
REMARK UNBOUND:                -0.168
REMARK  1 active torsions:
REMARK  status: ('A' for Active; 'I' for Inactive)
REMARK    1  A    between atoms: C10_13  and  C11_14 
ROOT
ATOM      1  C1  LG1 d5015      41.784  36.364  29.891  0.00  0.00     0.018 C 
ATOM      2  C2  LG1 d5015      40.629  35.739  30.583  0.00  0.00     0.193 C 
ATOM      3  C3  LG1 d5015      40.882  34.372  31.085  0.00  0.00     0.049 A 
ATOM      4  C4  LG1 d5015      39.844  33.632  31.655  0.00  0.00     0.037 A 
ATOM      5  C5  LG1 d5015      40.106  32.366  32.181  0.00  0.00     0.012 A 
ATOM      6  C6  LG1 d5015      41.399  31.844  32.148  0.00  0.00     0.022 A 
ATOM      7  C7  LG1 d5015      42.437  32.586  31.582  0.00  0.00     0.039 A 
ATOM      8  C8  LG1 d5015      42.177  33.843  31.035  0.00  0.00     0.083 A 
ATOM      9  O1  LG1 d5015      43.244  34.523  30.510  0.00  0.00    -0.346 OA
ATOM     10  C9  LG1 d5015      42.876  35.434  29.470  0.00  0.00     0.218 C 
ATOM     11 BR1  LG1 d5015      38.698  31.346  32.927  0.00  0.00    -0.051 Br
ATOM     12  O2  LG1 d5015      39.549  36.292  30.735  0.00  0.00    -0.287 OA
ATOM     13  C10 LG1 d5015      41.788  37.686  29.681  0.00  0.00     0.025 C 
ENDROOT
BRANCH  13  14
ATOM     14  C11 LG1 d5015      42.842  38.401  29.027  0.00  0.00    -0.029 A 
ATOM     15  C14 LG1 d5015      42.829  38.686  27.681  0.00  0.00     0.061 A 
ATOM     16  S1  LG1 d5015      44.223  39.552  27.193  0.00  0.00    -0.113 SA
ATOM     17  C13 LG1 d5015      44.850  39.548  28.786  0.00  0.00     0.050 A 
ATOM     18  C12 LG1 d5015      44.012  38.902  29.668  0.00  0.00     0.019 A 
ENDBRANCH  13  14
TORSDOF 1
ENDMDL
