REMARK INTER + INTRA:          -5.429
REMARK INTER:                  -5.240
REMARK INTRA:                  -0.189
REMARK UNBOUND:                -0.189
REMARK  1 active torsions:
REMARK  status: ('A' for Active; 'I' for Inactive)
REMARK    1  A    between atoms: C1_1  and  N1_10 
ROOT
ATOM      1  C1  LG1 d5015      41.309  33.433  31.311  0.00  0.00     0.056 A 
ATOM      2  C2  LG1 d5015      40.448  34.391  30.776  0.00  0.00    -0.033 A 
ATOM      3  C3  LG1 d5015      40.968  35.532  30.165  0.00  0.00     0.028 A 
ATOM      4  C4  LG1 d5015      42.348  35.716  30.088  0.00  0.00     0.012 A 
ATOM      5  C5  LG1 d5015      43.210  34.757  30.625  0.00  0.00     0.028 A 
ATOM      6  C6  LG1 d5015      42.690  33.617  31.236  0.00  0.00    -0.033 A 
ATOM      7  C7  LG1 d5015      43.638  32.609  31.800  0.00  0.00     0.050 C 
ATOM      8 BR1  LG1 d5015      43.052  37.263  29.262  0.00  0.00    -0.051 Br
ATOM      9  C8  LG1 d5015      38.965  34.221  30.841  0.00  0.00     0.050 C 
ENDROOT
BRANCH   1  10
ATOM     10  N1  LG1 d5015      40.775  32.258  31.939  0.00  0.00    -0.265 N 
ATOM     11  C11 LG1 d5015      40.530  31.057  31.272  0.00  0.00     0.148 C 
ATOM     12  S2  LG1 d5015      40.968  30.564  29.731  0.00  0.00    -0.052 SA
ATOM     13  S1  LG1 d5015      39.711  29.942  32.358  0.00  0.00    -0.090 SA
ATOM     14  C10 LG1 d5015      39.966  30.970  33.805  0.00  0.00     0.185 C 
ATOM     15  C9  LG1 d5015      40.456  32.297  33.303  0.00  0.00     0.239 C 
ATOM     16  O1  LG1 d5015      40.524  33.264  34.058  0.00  0.00    -0.272 OA
ENDBRANCH   1  10
TORSDOF 1
ENDMDL
