REMARK INTER + INTRA:          -5.811
REMARK INTER:                  -5.719
REMARK INTRA:                  -0.092
REMARK UNBOUND:                -0.189
REMARK  1 active torsions:
REMARK  status: ('A' for Active; 'I' for Inactive)
REMARK    1  A    between atoms: C1_1  and  N1_10 
ROOT
ATOM      1  C1  LG1 d5015      44.223  37.424  28.598  0.00  0.00     0.056 A 
ATOM      2  C2  LG1 d5015      43.127  37.289  29.449  0.00  0.00    -0.033 A 
ATOM      3  C3  LG1 d5015      42.998  36.148  30.242  0.00  0.00     0.028 A 
ATOM      4  C4  LG1 d5015      43.963  35.144  30.183  0.00  0.00     0.012 A 
ATOM      5  C5  LG1 d5015      45.060  35.279  29.329  0.00  0.00     0.028 A 
ATOM      6  C6  LG1 d5015      45.189  36.419  28.538  0.00  0.00    -0.033 A 
ATOM      7  C7  LG1 d5015      46.374  36.536  27.634  0.00  0.00     0.050 C 
ATOM      8 BR1  LG1 d5015      43.786  33.597  31.256  0.00  0.00    -0.051 Br
ATOM      9  C8  LG1 d5015      42.077  38.348  29.535  0.00  0.00     0.050 C 
ENDROOT
BRANCH   1  10
ATOM     10  N1  LG1 d5015      44.358  38.599  27.783  0.00  0.00    -0.265 N 
ATOM     11  C11 LG1 d5015      44.025  38.654  26.429  0.00  0.00     0.148 C 
ATOM     12  S2  LG1 d5015      43.206  37.552  25.468  0.00  0.00    -0.052 SA
ATOM     13  S1  LG1 d5015      44.511  40.213  25.771  0.00  0.00    -0.090 SA
ATOM     14  C10 LG1 d5015      44.887  40.912  27.377  0.00  0.00     0.185 C 
ATOM     15  C9  LG1 d5015      44.869  39.772  28.354  0.00  0.00     0.239 C 
ATOM     16  O1  LG1 d5015      45.288  39.923  29.500  0.00  0.00    -0.272 OA
ENDBRANCH   1  10
TORSDOF 1
ENDMDL
