REMARK INTER + INTRA:          -7.906
REMARK INTER:                  -7.746
REMARK INTRA:                  -0.160
REMARK UNBOUND:                -0.131
REMARK  1 active torsions:
REMARK  status: ('A' for Active; 'I' for Inactive)
REMARK    1  A    between atoms: C10_13  and  C11_14 
ROOT
ATOM      1  C1  LG1 d5015      43.274  35.578  30.259  0.00  0.00     0.018 C 
ATOM      2  C2  LG1 d5015      43.225  34.275  30.968  0.00  0.00     0.193 C 
ATOM      3  C3  LG1 d5015      41.861  33.756  31.201  0.00  0.00     0.049 A 
ATOM      4  C4  LG1 d5015      41.673  32.595  31.955  0.00  0.00     0.037 A 
ATOM      5  C5  LG1 d5015      40.387  32.079  32.119  0.00  0.00     0.012 A 
ATOM      6  C6  LG1 d5015      39.294  32.711  31.526  0.00  0.00     0.022 A 
ATOM      7  C7  LG1 d5015      39.483  33.868  30.769  0.00  0.00     0.039 A 
ATOM      8  C8  LG1 d5015      40.763  34.401  30.619  0.00  0.00     0.083 A 
ATOM      9  O1  LG1 d5015      40.879  35.529  29.850  0.00  0.00    -0.346 OA
ATOM     10  C9  LG1 d5015      41.994  36.349  30.216  0.00  0.00     0.218 C 
ATOM     11 BR1  LG1 d5015      40.121  30.525  33.165  0.00  0.00    -0.051 Br
ATOM     12  O2  LG1 d5015      44.218  33.666  31.337  0.00  0.00    -0.287 OA
ATOM     13  C10 LG1 d5015      44.426  35.988  29.715  0.00  0.00     0.025 C 
ENDROOT
BRANCH  13  14
ATOM     14  C11 LG1 d5015      44.598  37.221  29.008  0.00  0.00    -0.029 A 
ATOM     15  C14 LG1 d5015      44.342  37.352  27.661  0.00  0.00     0.061 A 
ATOM     16  S1  LG1 d5015      44.639  38.944  27.104  0.00  0.00    -0.113 SA
ATOM     17  C13 LG1 d5015      45.110  39.462  28.666  0.00  0.00     0.050 A 
ATOM     18  C12 LG1 d5015      45.042  38.444  29.590  0.00  0.00     0.019 A 
ENDBRANCH  13  14
TORSDOF 1
ENDMDL
