REMARK INTER + INTRA:          -8.005
REMARK INTER:                  -7.873
REMARK INTRA:                  -0.132
REMARK UNBOUND:                 0.005
REMARK  1 active torsions:
REMARK  status: ('A' for Active; 'I' for Inactive)
REMARK    1  A    between atoms: C10_13  and  C11_14 
ROOT
ATOM      1  C1  LG1 d5015      41.471  33.699  30.828  0.00  0.00     0.018 C 
ATOM      2  C2  LG1 d5015      41.352  35.039  30.203  0.00  0.00     0.193 C 
ATOM      3  C3  LG1 d5015      42.624  35.786  30.108  0.00  0.00     0.049 A 
ATOM      4  C4  LG1 d5015      42.630  37.102  29.642  0.00  0.00     0.037 A 
ATOM      5  C5  LG1 d5015      43.842  37.779  29.499  0.00  0.00     0.012 A 
ATOM      6  C6  LG1 d5015      45.044  37.142  29.808  0.00  0.00     0.022 A 
ATOM      7  C7  LG1 d5015      45.038  35.824  30.269  0.00  0.00     0.039 A 
ATOM      8  C8  LG1 d5015      43.828  35.151  30.436  0.00  0.00     0.083 A 
ATOM      9  O1  LG1 d5015      43.895  33.855  30.876  0.00  0.00    -0.346 OA
ATOM     10  C9  LG1 d5015      42.728  33.443  31.595  0.00  0.00     0.218 C 
ATOM     11 BR1  LG1 d5015      43.856  39.573  28.898  0.00  0.00    -0.051 Br
ATOM     12  O2  LG1 d5015      40.298  35.507  29.795  0.00  0.00    -0.287 OA
ATOM     13  C10 LG1 d5015      40.476  32.815  30.684  0.00  0.00     0.025 C 
ENDROOT
BRANCH  13  14
ATOM     14  C11 LG1 d5015      40.475  31.495  31.238  0.00  0.00    -0.029 A 
ATOM     15  C14 LG1 d5015      40.771  30.373  30.496  0.00  0.00     0.061 A 
ATOM     16  S1  LG1 d5015      40.690  28.943  31.434  0.00  0.00    -0.113 SA
ATOM     17  C13 LG1 d5015      40.256  29.822  32.837  0.00  0.00     0.050 A 
ATOM     18  C12 LG1 d5015      40.176  31.175  32.594  0.00  0.00     0.019 A 
ENDBRANCH  13  14
TORSDOF 1
ENDMDL
