REMARK INTER + INTRA:          -7.350
REMARK INTER:                  -7.180
REMARK INTRA:                  -0.170
REMARK UNBOUND:                 0.087
REMARK  1 active torsions:
REMARK  status: ('A' for Active; 'I' for Inactive)
REMARK    1  A    between atoms: C10_13  and  C11_14 
ROOT
ATOM      1  C1  LG1 d5015      41.783  36.365  29.892  0.00  0.00     0.018 C 
ATOM      2  C2  LG1 d5015      40.639  35.734  30.597  0.00  0.00     0.193 C 
ATOM      3  C3  LG1 d5015      40.910  34.374  31.109  0.00  0.00     0.049 A 
ATOM      4  C4  LG1 d5015      39.883  33.628  31.693  0.00  0.00     0.037 A 
ATOM      5  C5  LG1 d5015      40.162  32.370  32.228  0.00  0.00     0.012 A 
ATOM      6  C6  LG1 d5015      41.460  31.861  32.191  0.00  0.00     0.022 A 
ATOM      7  C7  LG1 d5015      42.486  32.609  31.611  0.00  0.00     0.039 A 
ATOM      8  C8  LG1 d5015      42.210  33.858  31.055  0.00  0.00     0.083 A 
ATOM      9  O1  LG1 d5015      43.267  34.545  30.518  0.00  0.00    -0.346 OA
ATOM     10  C9  LG1 d5015      42.882  35.443  29.472  0.00  0.00     0.218 C 
ATOM     11 BR1  LG1 d5015      38.770  31.341  32.991  0.00  0.00    -0.051 Br
ATOM     12  O2  LG1 d5015      39.555  36.277  30.751  0.00  0.00    -0.287 OA
ATOM     13  C10 LG1 d5015      41.772  37.685  29.671  0.00  0.00     0.025 C 
ENDROOT
BRANCH  13  14
ATOM     14  C11 LG1 d5015      42.814  38.406  29.004  0.00  0.00    -0.029 A 
ATOM     15  C14 LG1 d5015      42.798  38.664  27.651  0.00  0.00     0.061 A 
ATOM     16  S1  LG1 d5015      44.177  39.544  27.149  0.00  0.00    -0.113 SA
ATOM     17  C13 LG1 d5015      44.801  39.582  28.743  0.00  0.00     0.050 A 
ATOM     18  C12 LG1 d5015      43.975  38.938  29.636  0.00  0.00     0.019 A 
ENDBRANCH  13  14
TORSDOF 1
ENDMDL
