REMARK INTER + INTRA:          -7.033
REMARK INTER:                  -6.902
REMARK INTRA:                  -0.131
REMARK UNBOUND:                -0.131
REMARK  1 active torsions:
REMARK  status: ('A' for Active; 'I' for Inactive)
REMARK    1  A    between atoms: C10_13  and  C11_14 
ROOT
ATOM      1  C1  LG1 d5015      42.210  35.239  30.341  0.00  0.00     0.018 C 
ATOM      2  C2  LG1 d5015      42.068  36.650  29.901  0.00  0.00     0.193 C 
ATOM      3  C3  LG1 d5015      43.264  37.207  29.236  0.00  0.00     0.049 A 
ATOM      4  C4  LG1 d5015      43.300  38.556  28.875  0.00  0.00     0.037 A 
ATOM      5  C5  LG1 d5015      44.408  39.060  28.193  0.00  0.00     0.012 A 
ATOM      6  C6  LG1 d5015      45.472  38.220  27.862  0.00  0.00     0.022 A 
ATOM      7  C7  LG1 d5015      45.434  36.871  28.219  0.00  0.00     0.039 A 
ATOM      8  C8  LG1 d5015      44.338  36.367  28.921  0.00  0.00     0.083 A 
ATOM      9  O1  LG1 d5015      44.358  35.031  29.224  0.00  0.00    -0.346 OA
ATOM     10  C9  LG1 d5015      43.606  34.709  30.399  0.00  0.00     0.218 C 
ATOM     11 BR1  LG1 d5015      44.477  40.893  27.729  0.00  0.00    -0.051 Br
ATOM     12  O2  LG1 d5015      41.055  37.313  30.068  0.00  0.00    -0.287 OA
ATOM     13  C10 LG1 d5015      41.117  34.536  30.658  0.00  0.00     0.025 C 
ENDROOT
BRANCH  13  14
ATOM     14  C11 LG1 d5015      41.126  33.171  31.093  0.00  0.00    -0.029 A 
ATOM     15  C14 LG1 d5015      41.372  32.804  32.397  0.00  0.00     0.061 A 
ATOM     16  S1  LG1 d5015      41.314  31.106  32.607  0.00  0.00    -0.113 SA
ATOM     17  C13 LG1 d5015      40.959  30.857  30.952  0.00  0.00     0.050 A 
ATOM     18  C12 LG1 d5015      40.886  32.044  30.255  0.00  0.00     0.019 A 
ENDBRANCH  13  14
TORSDOF 1
ENDMDL
