REMARK INTER + INTRA:          -5.807
REMARK INTER:                  -5.720
REMARK INTRA:                  -0.087
REMARK UNBOUND:                -0.179
REMARK  1 active torsions:
REMARK  status: ('A' for Active; 'I' for Inactive)
REMARK    1  A    between atoms: C1_1  and  N1_10 
ROOT
ATOM      1  C1  LG1 d5015      44.235  37.421  28.584  0.00  0.00     0.056 A 
ATOM      2  C2  LG1 d5015      45.209  36.425  28.531  0.00  0.00    -0.033 A 
ATOM      3  C3  LG1 d5015      45.083  35.283  29.323  0.00  0.00     0.028 A 
ATOM      4  C4  LG1 d5015      43.983  35.138  30.168  0.00  0.00     0.012 A 
ATOM      5  C5  LG1 d5015      43.008  36.137  30.222  0.00  0.00     0.028 A 
ATOM      6  C6  LG1 d5015      43.136  37.277  29.430  0.00  0.00    -0.033 A 
ATOM      7  C7  LG1 d5015      42.076  38.329  29.509  0.00  0.00     0.050 C 
ATOM      8 BR1  LG1 d5015      43.813  33.592  31.242  0.00  0.00    -0.051 Br
ATOM      9  C8  LG1 d5015      46.398  36.551  27.634  0.00  0.00     0.050 C 
ENDROOT
BRANCH   1  10
ATOM     10  N1  LG1 d5015      44.364  38.596  27.768  0.00  0.00    -0.265 N 
ATOM     11  C11 LG1 d5015      44.042  38.645  26.411  0.00  0.00     0.148 C 
ATOM     12  S2  LG1 d5015      43.243  37.533  25.447  0.00  0.00    -0.052 SA
ATOM     13  S1  LG1 d5015      44.517  40.207  25.755  0.00  0.00    -0.090 SA
ATOM     14  C10 LG1 d5015      44.872  40.914  27.363  0.00  0.00     0.185 C 
ATOM     15  C9  LG1 d5015      44.859  39.776  28.342  0.00  0.00     0.239 C 
ATOM     16  O1  LG1 d5015      45.266  39.933  29.490  0.00  0.00    -0.272 OA
ENDBRANCH   1  10
TORSDOF 1
ENDMDL
