REMARK INTER + INTRA:          -7.983
REMARK INTER:                  -7.849
REMARK INTRA:                  -0.134
REMARK UNBOUND:                 0.087
REMARK  1 active torsions:
REMARK  status: ('A' for Active; 'I' for Inactive)
REMARK    1  A    between atoms: C10_13  and  C11_14 
ROOT
ATOM      1  C1  LG1 d5015      41.461  33.697  30.830  0.00  0.00     0.018 C 
ATOM      2  C2  LG1 d5015      41.319  35.050  30.237  0.00  0.00     0.193 C 
ATOM      3  C3  LG1 d5015      42.586  35.801  30.115  0.00  0.00     0.049 A 
ATOM      4  C4  LG1 d5015      42.575  37.127  29.677  0.00  0.00     0.037 A 
ATOM      5  C5  LG1 d5015      43.780  37.809  29.507  0.00  0.00     0.012 A 
ATOM      6  C6  LG1 d5015      44.993  37.168  29.762  0.00  0.00     0.022 A 
ATOM      7  C7  LG1 d5015      45.004  35.842  30.196  0.00  0.00     0.039 A 
ATOM      8  C8  LG1 d5015      43.801  35.162  30.389  0.00  0.00     0.083 A 
ATOM      9  O1  LG1 d5015      43.885  33.858  30.800  0.00  0.00    -0.346 OA
ATOM     10  C9  LG1 d5015      42.744  33.428  31.549  0.00  0.00     0.218 C 
ATOM     11 BR1  LG1 d5015      43.770  39.615  28.944  0.00  0.00    -0.051 Br
ATOM     12  O2  LG1 d5015      40.252  35.523  29.875  0.00  0.00    -0.287 OA
ATOM     13  C10 LG1 d5015      40.463  32.814  30.701  0.00  0.00     0.025 C 
ENDROOT
BRANCH  13  14
ATOM     14  C11 LG1 d5015      40.483  31.482  31.227  0.00  0.00    -0.029 A 
ATOM     15  C14 LG1 d5015      40.759  30.376  30.454  0.00  0.00     0.061 A 
ATOM     16  S1  LG1 d5015      40.710  28.928  31.363  0.00  0.00    -0.113 SA
ATOM     17  C13 LG1 d5015      40.320  29.777  32.798  0.00  0.00     0.050 A 
ATOM     18  C12 LG1 d5015      40.230  31.134  32.586  0.00  0.00     0.019 A 
ENDBRANCH  13  14
TORSDOF 1
ENDMDL
