MODEL 1
REMARK VINA RESULT:   -10.065      0.000      0.000
REMARK INTER + INTRA:         -10.927
REMARK INTER:                 -10.430
REMARK INTRA:                  -0.497
REMARK UNBOUND:                 0.315
REMARK  2 active torsions:
REMARK  status: ('A' for Active; 'I' for Inactive)
REMARK    1  A    between atoms: C1_1  and  N1_15 
REMARK    2  A    between atoms: C7_9  and  C4_4 
ROOT
ATOM      1  C1  LG1 d5015      41.787  32.881  31.250  0.00  0.00     0.141 A 
ATOM      2  C2  LG1 d5015      40.937  33.810  30.650  0.00  0.00     0.187 A 
ATOM      3  C3  LG1 d5015      41.446  35.020  30.180  0.00  0.00     0.175 A 
ATOM      4  C4  LG1 d5015      42.806  35.302  30.310  0.00  0.00     0.131 A 
ATOM      5  C5  LG1 d5015      43.656  34.373  30.910  0.00  0.00     0.175 A 
ATOM      6  C6  LG1 d5015      43.147  33.163  31.379  0.00  0.00     0.187 A 
ATOM      7  F1  LG1 d5015      43.976  32.280  31.954  0.00  0.00    -0.200 F 
ATOM      8  F2  LG1 d5015      44.965  34.636  31.039  0.00  0.00    -0.202 F 
ATOM      9  F6  LG1 d5015      40.620  35.906  29.604  0.00  0.00    -0.202 F 
ATOM     10  F7  LG1 d5015      39.627  33.552  30.519  0.00  0.00    -0.200 F 
ENDROOT
BRANCH   1  11
ATOM     11  N1  LG1 d5015      41.283  31.681  31.717  0.00  0.00    -0.232 N 
ATOM     12  N2  LG1 d5015      41.408  30.569  30.972  0.00  0.00    -0.172 NA
ATOM     13  C10 LG1 d5015      40.819  29.634  31.722  0.00  0.00     0.053 A 
ATOM     14  C9  LG1 d5015      40.320  30.145  32.936  0.00  0.00     0.055 A 
ATOM     15  C11 LG1 d5015      40.752  28.244  31.240  0.00  0.00     0.072 C 
ATOM     16  C8  LG1 d5015      40.638  31.481  32.901  0.00  0.00     0.035 A 
ATOM     17  C12 LG1 d5015      40.384  32.552  33.884  0.00  0.00     0.070 C 
ENDBRANCH   1  11
BRANCH   4  18
ATOM     18  C7  LG1 d5015      43.350  36.597  29.807  0.00  0.00     0.423 C 
ATOM     19  F4  LG1 d5015      44.636  36.838  30.198  0.00  0.00    -0.166 F 
ATOM     20  F3  LG1 d5015      42.640  37.686  30.223  0.00  0.00    -0.166 F 
ATOM     21  F5  LG1 d5015      43.362  36.667  28.444  0.00  0.00    -0.166 F 
ENDBRANCH   4  18
TORSDOF 2
ENDMDL
MODEL 2
REMARK VINA RESULT:    -9.995      0.125      2.329
REMARK INTER + INTRA:         -10.850
REMARK INTER:                 -10.343
REMARK INTRA:                  -0.507
REMARK UNBOUND:                 0.315
REMARK  2 active torsions:
REMARK  status: ('A' for Active; 'I' for Inactive)
REMARK    1  A    between atoms: C1_1  and  N1_15 
REMARK    2  A    between atoms: C7_9  and  C4_4 
ROOT
ATOM      1  C1  LG1 d5015      41.800  32.876  31.278  0.00  0.00     0.141 A 
ATOM      2  C2  LG1 d5015      43.167  33.113  31.424  0.00  0.00     0.187 A 
ATOM      3  C3  LG1 d5015      43.722  34.303  30.954  0.00  0.00     0.175 A 
ATOM      4  C4  LG1 d5015      42.911  35.256  30.338  0.00  0.00     0.131 A 
ATOM      5  C5  LG1 d5015      41.545  35.019  30.192  0.00  0.00     0.175 A 
ATOM      6  C6  LG1 d5015      40.990  33.830  30.662  0.00  0.00     0.187 A 
ATOM      7  F1  LG1 d5015      39.674  33.616  30.514  0.00  0.00    -0.200 F 
ATOM      8  F2  LG1 d5015      40.758  35.930  29.600  0.00  0.00    -0.202 F 
ATOM      9  F6  LG1 d5015      45.038  34.520  31.100  0.00  0.00    -0.202 F 
ATOM     10  F7  LG1 d5015      43.958  32.205  32.014  0.00  0.00    -0.200 F 
ENDROOT
BRANCH   1  11
ATOM     11  N1  LG1 d5015      41.248  31.696  31.743  0.00  0.00    -0.232 N 
ATOM     12  N2  LG1 d5015      41.328  30.582  30.995  0.00  0.00    -0.172 NA
ATOM     13  C10 LG1 d5015      40.702  29.670  31.744  0.00  0.00     0.053 A 
ATOM     14  C9  LG1 d5015      40.226  30.197  32.959  0.00  0.00     0.055 A 
ATOM     15  C11 LG1 d5015      40.579  28.285  31.257  0.00  0.00     0.072 C 
ATOM     16  C8  LG1 d5015      40.597  31.519  32.928  0.00  0.00     0.035 A 
ATOM     17  C12 LG1 d5015      40.388  32.597  33.914  0.00  0.00     0.070 C 
ENDBRANCH   1  11
BRANCH   4  18
ATOM     18  C7  LG1 d5015      43.507  36.528  29.836  0.00  0.00     0.423 C 
ATOM     19  F4  LG1 d5015      44.785  36.741  30.266  0.00  0.00    -0.166 F 
ATOM     20  F3  LG1 d5015      42.814  37.643  30.213  0.00  0.00    -0.166 F 
ATOM     21  F5  LG1 d5015      43.566  36.577  28.473  0.00  0.00    -0.166 F 
ENDBRANCH   4  18
TORSDOF 2
ENDMDL
MODEL 3
REMARK VINA RESULT:    -7.882      2.796      6.158
REMARK INTER + INTRA:          -8.489
REMARK INTER:                  -7.965
REMARK INTRA:                  -0.525
REMARK UNBOUND:                 0.315
REMARK  2 active torsions:
REMARK  status: ('A' for Active; 'I' for Inactive)
REMARK    1  A    between atoms: C1_1  and  N1_15 
REMARK    2  A    between atoms: C7_9  and  C4_4 
ROOT
ATOM      1  C1  LG1 d5015      43.379  35.709  30.077  0.00  0.00     0.141 A 
ATOM      2  C2  LG1 d5015      42.054  36.036  29.792  0.00  0.00     0.187 A 
ATOM      3  C3  LG1 d5015      41.025  35.173  30.169  0.00  0.00     0.175 A 
ATOM      4  C4  LG1 d5015      41.322  33.982  30.831  0.00  0.00     0.131 A 
ATOM      5  C5  LG1 d5015      42.647  33.654  31.115  0.00  0.00     0.175 A 
ATOM      6  C6  LG1 d5015      43.675  34.517  30.739  0.00  0.00     0.187 A 
ATOM      7  F1  LG1 d5015      44.945  34.189  31.019  0.00  0.00    -0.200 F 
ATOM      8  F2  LG1 d5015      42.942  32.510  31.751  0.00  0.00    -0.202 F 
ATOM      9  F6  LG1 d5015      39.754  35.499  29.891  0.00  0.00    -0.202 F 
ATOM     10  F7  LG1 d5015      41.754  37.179  29.157  0.00  0.00    -0.200 F 
ENDROOT
BRANCH   1  11
ATOM     11  N1  LG1 d5015      44.400  36.564  29.703  0.00  0.00    -0.232 N 
ATOM     12  N2  LG1 d5015      44.914  37.422  30.601  0.00  0.00    -0.172 NA
ATOM     13  C10 LG1 d5015      45.850  38.068  29.900  0.00  0.00     0.053 A 
ATOM     14  C9  LG1 d5015      45.932  37.627  28.566  0.00  0.00     0.055 A 
ATOM     15  C11 LG1 d5015      46.657  39.115  30.550  0.00  0.00     0.072 C 
ATOM     16  C8  LG1 d5015      44.974  36.647  28.470  0.00  0.00     0.035 A 
ATOM     17  C12 LG1 d5015      44.577  35.804  27.325  0.00  0.00     0.070 C 
ENDBRANCH   1  11
BRANCH   4  18
ATOM     18  C7  LG1 d5015      40.221  33.058  31.233  0.00  0.00     0.423 C 
ATOM     19  F4  LG1 d5015      38.974  33.543  30.961  0.00  0.00    -0.166 F 
ATOM     20  F3  LG1 d5015      40.209  32.772  32.569  0.00  0.00    -0.166 F 
ATOM     21  F5  LG1 d5015      40.292  31.851  30.601  0.00  0.00    -0.166 F 
ENDBRANCH   4  18
TORSDOF 2
ENDMDL
MODEL 4
REMARK VINA RESULT:    -7.879      2.805      6.538
REMARK INTER + INTRA:          -8.485
REMARK INTER:                  -7.963
REMARK INTRA:                  -0.522
REMARK UNBOUND:                 0.315
REMARK  2 active torsions:
REMARK  status: ('A' for Active; 'I' for Inactive)
REMARK    1  A    between atoms: C1_1  and  N1_15 
REMARK    2  A    between atoms: C7_9  and  C4_4 
ROOT
ATOM      1  C1  LG1 d5015      43.376  35.711  30.074  0.00  0.00     0.141 A 
ATOM      2  C2  LG1 d5015      43.662  34.510  30.724  0.00  0.00     0.187 A 
ATOM      3  C3  LG1 d5015      42.626  33.653  31.092  0.00  0.00     0.175 A 
ATOM      4  C4  LG1 d5015      41.303  33.996  30.812  0.00  0.00     0.131 A 
ATOM      5  C5  LG1 d5015      41.017  35.197  30.163  0.00  0.00     0.175 A 
ATOM      6  C6  LG1 d5015      42.054  36.053  29.794  0.00  0.00     0.187 A 
ATOM      7  F1  LG1 d5015      41.763  37.204  29.171  0.00  0.00    -0.200 F 
ATOM      8  F2  LG1 d5015      39.748  35.535  29.889  0.00  0.00    -0.202 F 
ATOM      9  F6  LG1 d5015      42.912  32.500  31.716  0.00  0.00    -0.202 F 
ATOM     10  F7  LG1 d5015      44.929  34.168  31.000  0.00  0.00    -0.200 F 
ENDROOT
BRANCH   1  11
ATOM     11  N1  LG1 d5015      44.403  36.562  29.709  0.00  0.00    -0.232 N 
ATOM     12  N2  LG1 d5015      44.918  37.414  30.613  0.00  0.00    -0.172 NA
ATOM     13  C10 LG1 d5015      45.860  38.057  29.920  0.00  0.00     0.053 A 
ATOM     14  C9  LG1 d5015      45.947  37.622  28.584  0.00  0.00     0.055 A 
ATOM     15  C11 LG1 d5015      46.670  39.097  30.578  0.00  0.00     0.072 C 
ATOM     16  C8  LG1 d5015      44.985  36.647  28.479  0.00  0.00     0.035 A 
ATOM     17  C12 LG1 d5015      44.588  35.812  27.329  0.00  0.00     0.070 C 
ENDBRANCH   1  11
BRANCH   4  18
ATOM     18  C7  LG1 d5015      40.195  33.078  31.207  0.00  0.00     0.423 C 
ATOM     19  F4  LG1 d5015      38.951  33.593  30.979  0.00  0.00    -0.166 F 
ATOM     20  F3  LG1 d5015      40.206  32.747  32.532  0.00  0.00    -0.166 F 
ATOM     21  F5  LG1 d5015      40.230  31.892  30.533  0.00  0.00    -0.166 F 
ENDBRANCH   4  18
TORSDOF 2
ENDMDL
MODEL 5
REMARK VINA RESULT:    -7.829      2.412      5.724
REMARK INTER + INTRA:          -8.429
REMARK INTER:                  -8.744
REMARK INTRA:                   0.315
REMARK UNBOUND:                 0.315
REMARK  2 active torsions:
REMARK  status: ('A' for Active; 'I' for Inactive)
REMARK    1  A    between atoms: C1_1  and  N1_15 
REMARK    2  A    between atoms: C7_9  and  C4_4 
ROOT
ATOM      1  C1  LG1 d5015      42.013  34.669  30.338  0.00  0.00     0.141 A 
ATOM      2  C2  LG1 d5015      40.634  34.471  30.262  0.00  0.00     0.187 A 
ATOM      3  C3  LG1 d5015      40.045  33.405  30.942  0.00  0.00     0.175 A 
ATOM      4  C4  LG1 d5015      40.834  32.536  31.696  0.00  0.00     0.131 A 
ATOM      5  C5  LG1 d5015      42.212  32.734  31.770  0.00  0.00     0.175 A 
ATOM      6  C6  LG1 d5015      42.801  33.800  31.092  0.00  0.00     0.187 A 
ATOM      7  F1  LG1 d5015      44.128  33.977  31.173  0.00  0.00    -0.200 F 
ATOM      8  F2  LG1 d5015      42.979  31.903  32.493  0.00  0.00    -0.202 F 
ATOM      9  F6  LG1 d5015      38.718  33.224  30.864  0.00  0.00    -0.202 F 
ATOM     10  F7  LG1 d5015      39.864  35.298  29.541  0.00  0.00    -0.200 F 
ENDROOT
BRANCH   1  11
ATOM     11  N1  LG1 d5015      42.598  35.725  29.664  0.00  0.00    -0.232 N 
ATOM     12  N2  LG1 d5015      43.568  35.488  28.764  0.00  0.00    -0.172 NA
ATOM     13  C10 LG1 d5015      43.885  36.710  28.330  0.00  0.00     0.053 A 
ATOM     14  C9  LG1 d5015      43.124  37.721  28.949  0.00  0.00     0.055 A 
ATOM     15  C11 LG1 d5015      44.934  36.875  27.309  0.00  0.00     0.072 C 
ATOM     16  C8  LG1 d5015      42.295  37.046  29.812  0.00  0.00     0.035 A 
ATOM     17  C12 LG1 d5015      41.264  37.549  30.740  0.00  0.00     0.070 C 
ENDBRANCH   1  11
BRANCH   4  18
ATOM     18  C7  LG1 d5015      40.203  31.396  32.422  0.00  0.00     0.423 C 
ATOM     19  F4  LG1 d5015      38.847  31.338  32.276  0.00  0.00    -0.166 F 
ATOM     20  F3  LG1 d5015      40.416  31.421  33.771  0.00  0.00    -0.166 F 
ATOM     21  F5  LG1 d5015      40.669  30.184  32.001  0.00  0.00    -0.166 F 
ENDBRANCH   4  18
TORSDOF 2
ENDMDL
