MODEL 1
REMARK VINA RESULT:    -5.931      0.000      0.000
REMARK INTER + INTRA:          -6.462
REMARK INTER:                  -6.298
REMARK INTRA:                  -0.164
REMARK UNBOUND:                -0.183
REMARK  1 active torsions:
REMARK  status: ('A' for Active; 'I' for Inactive)
REMARK    1  A    between atoms: C1_1  and  N1_10 
ROOT
ATOM      1  C1  LG1 d5015      41.411  33.346  31.182  0.00  0.00     0.056 A 
ATOM      2  C2  LG1 d5015      40.526  34.301  30.680  0.00  0.00    -0.033 A 
ATOM      3  C3  LG1 d5015      41.012  35.519  30.205  0.00  0.00     0.028 A 
ATOM      4  C4  LG1 d5015      42.381  35.783  30.231  0.00  0.00     0.012 A 
ATOM      5  C5  LG1 d5015      43.266  34.828  30.735  0.00  0.00     0.028 A 
ATOM      6  C6  LG1 d5015      42.780  33.611  31.209  0.00  0.00    -0.033 A 
ATOM      7  C7  LG1 d5015      43.752  32.608  31.742  0.00  0.00     0.050 C 
ATOM      8 BR1  LG1 d5015      43.038  37.435  29.589  0.00  0.00    -0.051 Br
ATOM      9  C8  LG1 d5015      39.054  34.047  30.638  0.00  0.00     0.050 C 
ENDROOT
BRANCH   1  10
ATOM     10  N1  LG1 d5015      40.912  32.092  31.670  0.00  0.00    -0.265 N 
ATOM     11  C11 LG1 d5015      40.472  31.879  32.977  0.00  0.00     0.148 C 
ATOM     12  S2  LG1 d5015      40.177  32.973  34.212  0.00  0.00    -0.052 SA
ATOM     13  S1  LG1 d5015      40.118  30.171  33.205  0.00  0.00    -0.090 SA
ATOM     14  C10 LG1 d5015      40.268  29.781  31.461  0.00  0.00     0.185 C 
ATOM     15  C9  LG1 d5015      40.869  30.990  30.804  0.00  0.00     0.239 C 
ATOM     16  O1  LG1 d5015      41.270  30.937  29.644  0.00  0.00    -0.272 OA
ENDBRANCH   1  10
TORSDOF 1
ENDMDL
MODEL 2
REMARK VINA RESULT:    -5.922      0.010      2.152
REMARK INTER + INTRA:          -6.451
REMARK INTER:                  -6.294
REMARK INTRA:                  -0.157
REMARK UNBOUND:                -0.183
REMARK  1 active torsions:
REMARK  status: ('A' for Active; 'I' for Inactive)
REMARK    1  A    between atoms: C1_1  and  N1_10 
ROOT
ATOM      1  C1  LG1 d5015      41.410  33.345  31.181  0.00  0.00     0.056 A 
ATOM      2  C2  LG1 d5015      42.780  33.608  31.199  0.00  0.00    -0.033 A 
ATOM      3  C3  LG1 d5015      43.261  34.829  30.724  0.00  0.00     0.028 A 
ATOM      4  C4  LG1 d5015      42.374  35.785  30.231  0.00  0.00     0.012 A 
ATOM      5  C5  LG1 d5015      41.003  35.520  30.212  0.00  0.00     0.028 A 
ATOM      6  C6  LG1 d5015      40.523  34.301  30.686  0.00  0.00    -0.033 A 
ATOM      7  C7  LG1 d5015      39.050  34.047  30.653  0.00  0.00     0.050 C 
ATOM      8 BR1  LG1 d5015      43.027  37.437  29.586  0.00  0.00    -0.051 Br
ATOM      9  C8  LG1 d5015      43.755  32.604  31.723  0.00  0.00     0.050 C 
ENDROOT
BRANCH   1  10
ATOM     10  N1  LG1 d5015      40.914  32.090  31.671  0.00  0.00    -0.265 N 
ATOM     11  C11 LG1 d5015      40.475  31.879  32.978  0.00  0.00     0.148 C 
ATOM     12  S2  LG1 d5015      40.177  32.973  34.211  0.00  0.00    -0.052 SA
ATOM     13  S1  LG1 d5015      40.125  30.169  33.208  0.00  0.00    -0.090 SA
ATOM     14  C10 LG1 d5015      40.276  29.777  31.465  0.00  0.00     0.185 C 
ATOM     15  C9  LG1 d5015      40.874  30.987  30.807  0.00  0.00     0.239 C 
ATOM     16  O1  LG1 d5015      41.276  30.932  29.646  0.00  0.00    -0.272 OA
ENDBRANCH   1  10
TORSDOF 1
ENDMDL
MODEL 3
REMARK VINA RESULT:    -5.327      6.065      7.841
REMARK INTER + INTRA:          -5.822
REMARK INTER:                  -5.714
REMARK INTRA:                  -0.108
REMARK UNBOUND:                -0.183
REMARK  1 active torsions:
REMARK  status: ('A' for Active; 'I' for Inactive)
REMARK    1  A    between atoms: C1_1  and  N1_10 
ROOT
ATOM      1  C1  LG1 d5015      44.232  37.436  28.568  0.00  0.00     0.056 A 
ATOM      2  C2  LG1 d5015      43.128  37.296  29.408  0.00  0.00    -0.033 A 
ATOM      3  C3  LG1 d5015      42.997  36.156  30.202  0.00  0.00     0.028 A 
ATOM      4  C4  LG1 d5015      43.970  35.158  30.156  0.00  0.00     0.012 A 
ATOM      5  C5  LG1 d5015      45.075  35.298  29.314  0.00  0.00     0.028 A 
ATOM      6  C6  LG1 d5015      45.205  36.437  28.521  0.00  0.00    -0.033 A 
ATOM      7  C7  LG1 d5015      46.399  36.560  27.630  0.00  0.00     0.050 C 
ATOM      8 BR1  LG1 d5015      43.791  33.613  31.231  0.00  0.00    -0.051 Br
ATOM      9  C8  LG1 d5015      42.071  38.349  29.481  0.00  0.00     0.050 C 
ENDROOT
BRANCH   1  10
ATOM     10  N1  LG1 d5015      44.368  38.610  27.752  0.00  0.00    -0.265 N 
ATOM     11  C11 LG1 d5015      44.040  38.663  26.398  0.00  0.00     0.148 C 
ATOM     12  S2  LG1 d5015      43.224  37.559  25.436  0.00  0.00    -0.052 SA
ATOM     13  S1  LG1 d5015      44.526  40.220  25.738  0.00  0.00    -0.090 SA
ATOM     14  C10 LG1 d5015      44.897  40.923  27.345  0.00  0.00     0.185 C 
ATOM     15  C9  LG1 d5015      44.877  39.784  28.323  0.00  0.00     0.239 C 
ATOM     16  O1  LG1 d5015      45.294  39.937  29.470  0.00  0.00    -0.272 OA
ENDBRANCH   1  10
TORSDOF 1
ENDMDL
MODEL 4
REMARK VINA RESULT:    -5.326      6.058      8.070
REMARK INTER + INTRA:          -5.820
REMARK INTER:                  -5.741
REMARK INTRA:                  -0.079
REMARK UNBOUND:                -0.183
REMARK  1 active torsions:
REMARK  status: ('A' for Active; 'I' for Inactive)
REMARK    1  A    between atoms: C1_1  and  N1_10 
ROOT
ATOM      1  C1  LG1 d5015      44.233  37.428  28.571  0.00  0.00     0.056 A 
ATOM      2  C2  LG1 d5015      45.210  36.433  28.524  0.00  0.00    -0.033 A 
ATOM      3  C3  LG1 d5015      45.092  35.303  29.334  0.00  0.00     0.028 A 
ATOM      4  C4  LG1 d5015      43.999  35.168  30.189  0.00  0.00     0.012 A 
ATOM      5  C5  LG1 d5015      43.022  36.165  30.236  0.00  0.00     0.028 A 
ATOM      6  C6  LG1 d5015      43.141  37.294  29.427  0.00  0.00    -0.033 A 
ATOM      7  C7  LG1 d5015      42.079  38.344  29.499  0.00  0.00     0.050 C 
ATOM      8 BR1  LG1 d5015      43.840  33.637  31.286  0.00  0.00    -0.051 Br
ATOM      9  C8  LG1 d5015      46.391  36.549  27.617  0.00  0.00     0.050 C 
ENDROOT
BRANCH   1  10
ATOM     10  N1  LG1 d5015      44.353  38.591  27.737  0.00  0.00    -0.265 N 
ATOM     11  C11 LG1 d5015      44.028  38.618  26.381  0.00  0.00     0.148 C 
ATOM     12  S2  LG1 d5015      43.233  37.487  25.434  0.00  0.00    -0.052 SA
ATOM     13  S1  LG1 d5015      44.491  40.173  25.700  0.00  0.00    -0.090 SA
ATOM     14  C10 LG1 d5015      44.847  40.906  27.297  0.00  0.00     0.185 C 
ATOM     15  C9  LG1 d5015      44.842  39.782  28.292  0.00  0.00     0.239 C 
ATOM     16  O1  LG1 d5015      45.252  39.959  29.437  0.00  0.00    -0.272 OA
ENDBRANCH   1  10
TORSDOF 1
ENDMDL
MODEL 5
REMARK VINA RESULT:    -4.950      1.623      2.120
REMARK INTER + INTRA:          -5.423
REMARK INTER:                  -5.239
REMARK INTRA:                  -0.183
REMARK UNBOUND:                -0.183
REMARK  1 active torsions:
REMARK  status: ('A' for Active; 'I' for Inactive)
REMARK    1  A    between atoms: C1_1  and  N1_10 
ROOT
ATOM      1  C1  LG1 d5015      41.307  33.413  31.309  0.00  0.00     0.056 A 
ATOM      2  C2  LG1 d5015      40.447  34.372  30.774  0.00  0.00    -0.033 A 
ATOM      3  C3  LG1 d5015      40.969  35.518  30.172  0.00  0.00     0.028 A 
ATOM      4  C4  LG1 d5015      42.350  35.703  30.104  0.00  0.00     0.012 A 
ATOM      5  C5  LG1 d5015      43.210  34.743  30.641  0.00  0.00     0.028 A 
ATOM      6  C6  LG1 d5015      42.688  33.600  31.243  0.00  0.00    -0.033 A 
ATOM      7  C7  LG1 d5015      43.634  32.590  31.808  0.00  0.00     0.050 C 
ATOM      8 BR1  LG1 d5015      43.056  37.256  29.290  0.00  0.00    -0.051 Br
ATOM      9  C8  LG1 d5015      38.964  34.201  30.830  0.00  0.00     0.050 C 
ENDROOT
BRANCH   1  10
ATOM     10  N1  LG1 d5015      40.771  32.234  31.928  0.00  0.00    -0.265 N 
ATOM     11  C11 LG1 d5015      40.538  31.034  31.255  0.00  0.00     0.148 C 
ATOM     12  S2  LG1 d5015      40.996  30.547  29.719  0.00  0.00    -0.052 SA
ATOM     13  S1  LG1 d5015      39.712  29.912  32.330  0.00  0.00    -0.090 SA
ATOM     14  C10 LG1 d5015      39.945  30.938  33.782  0.00  0.00     0.185 C 
ATOM     15  C9  LG1 d5015      40.435  32.269  33.288  0.00  0.00     0.239 C 
ATOM     16  O1  LG1 d5015      40.490  33.235  34.046  0.00  0.00    -0.272 OA
ENDBRANCH   1  10
TORSDOF 1
ENDMDL
