REMARK INTER + INTRA:          -8.485
REMARK INTER:                  -7.963
REMARK INTRA:                  -0.522
REMARK UNBOUND:                 0.315
REMARK  2 active torsions:
REMARK  status: ('A' for Active; 'I' for Inactive)
REMARK    1  A    between atoms: C1_1  and  N1_15 
REMARK    2  A    between atoms: C7_9  and  C4_4 
ROOT
ATOM      1  C1  LG1 d5015      43.376  35.711  30.074  0.00  0.00     0.141 A 
ATOM      2  C2  LG1 d5015      43.662  34.510  30.724  0.00  0.00     0.187 A 
ATOM      3  C3  LG1 d5015      42.626  33.653  31.092  0.00  0.00     0.175 A 
ATOM      4  C4  LG1 d5015      41.303  33.996  30.812  0.00  0.00     0.131 A 
ATOM      5  C5  LG1 d5015      41.017  35.197  30.163  0.00  0.00     0.175 A 
ATOM      6  C6  LG1 d5015      42.054  36.053  29.794  0.00  0.00     0.187 A 
ATOM      7  F1  LG1 d5015      41.763  37.204  29.171  0.00  0.00    -0.200 F 
ATOM      8  F2  LG1 d5015      39.748  35.535  29.889  0.00  0.00    -0.202 F 
ATOM      9  F6  LG1 d5015      42.912  32.500  31.716  0.00  0.00    -0.202 F 
ATOM     10  F7  LG1 d5015      44.929  34.168  31.000  0.00  0.00    -0.200 F 
ENDROOT
BRANCH   1  11
ATOM     11  N1  LG1 d5015      44.403  36.562  29.709  0.00  0.00    -0.232 N 
ATOM     12  N2  LG1 d5015      44.918  37.414  30.613  0.00  0.00    -0.172 NA
ATOM     13  C10 LG1 d5015      45.860  38.057  29.920  0.00  0.00     0.053 A 
ATOM     14  C9  LG1 d5015      45.947  37.622  28.584  0.00  0.00     0.055 A 
ATOM     15  C11 LG1 d5015      46.670  39.097  30.578  0.00  0.00     0.072 C 
ATOM     16  C8  LG1 d5015      44.985  36.647  28.479  0.00  0.00     0.035 A 
ATOM     17  C12 LG1 d5015      44.588  35.812  27.329  0.00  0.00     0.070 C 
ENDBRANCH   1  11
BRANCH   4  18
ATOM     18  C7  LG1 d5015      40.195  33.078  31.207  0.00  0.00     0.423 C 
ATOM     19  F4  LG1 d5015      38.951  33.593  30.979  0.00  0.00    -0.166 F 
ATOM     20  F3  LG1 d5015      40.206  32.747  32.532  0.00  0.00    -0.166 F 
ATOM     21  F5  LG1 d5015      40.230  31.892  30.533  0.00  0.00    -0.166 F 
ENDBRANCH   4  18
TORSDOF 2
ENDMDL
