REMARK INTER + INTRA:          -7.989
REMARK INTER:                  -7.855
REMARK INTRA:                  -0.134
REMARK UNBOUND:                -0.168
REMARK  1 active torsions:
REMARK  status: ('A' for Active; 'I' for Inactive)
REMARK    1  A    between atoms: C10_13  and  C11_14 
ROOT
ATOM      1  C1  LG1 d5015      41.459  33.696  30.833  0.00  0.00     0.018 C 
ATOM      2  C2  LG1 d5015      41.334  35.044  30.224  0.00  0.00     0.193 C 
ATOM      3  C3  LG1 d5015      42.608  35.783  30.107  0.00  0.00     0.049 A 
ATOM      4  C4  LG1 d5015      42.612  37.105  29.655  0.00  0.00     0.037 A 
ATOM      5  C5  LG1 d5015      43.825  37.775  29.489  0.00  0.00     0.012 A 
ATOM      6  C6  LG1 d5015      45.030  37.127  29.763  0.00  0.00     0.022 A 
ATOM      7  C7  LG1 d5015      45.025  35.805  30.211  0.00  0.00     0.039 A 
ATOM      8  C8  LG1 d5015      43.815  35.137  30.399  0.00  0.00     0.083 A 
ATOM      9  O1  LG1 d5015      43.884  33.837  30.824  0.00  0.00    -0.346 OA
ATOM     10  C9  LG1 d5015      42.732  33.424  31.566  0.00  0.00     0.218 C 
ATOM     11 BR1  LG1 d5015      43.836  39.575  28.908  0.00  0.00    -0.051 Br
ATOM     12  O2  LG1 d5015      40.274  35.522  29.847  0.00  0.00    -0.287 OA
ATOM     13  C10 LG1 d5015      40.455  32.820  30.703  0.00  0.00     0.025 C 
ENDROOT
BRANCH  13  14
ATOM     14  C11 LG1 d5015      40.459  31.494  31.242  0.00  0.00    -0.029 A 
ATOM     15  C14 LG1 d5015      40.737  30.380  30.484  0.00  0.00     0.061 A 
ATOM     16  S1  LG1 d5015      40.666  28.940  31.407  0.00  0.00    -0.113 SA
ATOM     17  C13 LG1 d5015      40.262  29.805  32.827  0.00  0.00     0.050 A 
ATOM     18  C12 LG1 d5015      40.184  31.161  32.600  0.00  0.00     0.019 A 
ENDBRANCH  13  14
TORSDOF 1
ENDMDL
