REMARK INTER + INTRA:          -5.791
REMARK INTER:                  -5.692
REMARK INTRA:                  -0.099
REMARK UNBOUND:                -0.189
REMARK  1 active torsions:
REMARK  status: ('A' for Active; 'I' for Inactive)
REMARK    1  A    between atoms: C1_1  and  N1_10 
ROOT
ATOM      1  C1  LG1 d5015      44.229  37.418  28.596  0.00  0.00     0.056 A 
ATOM      2  C2  LG1 d5015      45.205  36.423  28.537  0.00  0.00    -0.033 A 
ATOM      3  C3  LG1 d5015      45.077  35.274  29.317  0.00  0.00     0.028 A 
ATOM      4  C4  LG1 d5015      43.974  35.118  30.156  0.00  0.00     0.012 A 
ATOM      5  C5  LG1 d5015      42.997  36.115  30.216  0.00  0.00     0.028 A 
ATOM      6  C6  LG1 d5015      43.126  37.263  29.436  0.00  0.00    -0.033 A 
ATOM      7  C7  LG1 d5015      42.064  38.312  29.522  0.00  0.00     0.050 C 
ATOM      8 BR1  LG1 d5015      43.802  33.561  31.214  0.00  0.00    -0.051 Br
ATOM      9  C8  LG1 d5015      46.397  36.560  27.647  0.00  0.00     0.050 C 
ENDROOT
BRANCH   1  10
ATOM     10  N1  LG1 d5015      44.359  38.600  27.793  0.00  0.00    -0.265 N 
ATOM     11  C11 LG1 d5015      44.033  38.666  26.438  0.00  0.00     0.148 C 
ATOM     12  S2  LG1 d5015      43.227  37.566  25.463  0.00  0.00    -0.052 SA
ATOM     13  S1  LG1 d5015      44.511  40.234  25.797  0.00  0.00    -0.090 SA
ATOM     14  C10 LG1 d5015      44.873  40.921  27.412  0.00  0.00     0.185 C 
ATOM     15  C9  LG1 d5015      44.859  39.772  28.378  0.00  0.00     0.239 C 
ATOM     16  O1  LG1 d5015      45.270  39.916  29.527  0.00  0.00    -0.272 OA
ENDBRANCH   1  10
TORSDOF 1
ENDMDL
