REMARK INTER + INTRA:          -7.354
REMARK INTER:                  -7.186
REMARK INTRA:                  -0.168
REMARK UNBOUND:                -0.168
REMARK  1 active torsions:
REMARK  status: ('A' for Active; 'I' for Inactive)
REMARK    1  A    between atoms: C10_13  and  C11_14 
ROOT
ATOM      1  C1  LG1 d5015      41.784  36.364  29.891  0.00  0.00     0.018 C 
ATOM      2  C2  LG1 d5015      40.629  35.739  30.583  0.00  0.00     0.193 C 
ATOM      3  C3  LG1 d5015      40.882  34.372  31.085  0.00  0.00     0.049 A 
ATOM      4  C4  LG1 d5015      39.844  33.632  31.655  0.00  0.00     0.037 A 
ATOM      5  C5  LG1 d5015      40.106  32.366  32.181  0.00  0.00     0.012 A 
ATOM      6  C6  LG1 d5015      41.399  31.844  32.148  0.00  0.00     0.022 A 
ATOM      7  C7  LG1 d5015      42.437  32.586  31.582  0.00  0.00     0.039 A 
ATOM      8  C8  LG1 d5015      42.177  33.843  31.035  0.00  0.00     0.083 A 
ATOM      9  O1  LG1 d5015      43.244  34.523  30.510  0.00  0.00    -0.346 OA
ATOM     10  C9  LG1 d5015      42.876  35.434  29.470  0.00  0.00     0.218 C 
ATOM     11 BR1  LG1 d5015      38.698  31.346  32.927  0.00  0.00    -0.051 Br
ATOM     12  O2  LG1 d5015      39.549  36.292  30.735  0.00  0.00    -0.287 OA
ATOM     13  C10 LG1 d5015      41.788  37.686  29.681  0.00  0.00     0.025 C 
ENDROOT
BRANCH  13  14
ATOM     14  C11 LG1 d5015      42.842  38.401  29.027  0.00  0.00    -0.029 A 
ATOM     15  C14 LG1 d5015      42.829  38.686  27.681  0.00  0.00     0.061 A 
ATOM     16  S1  LG1 d5015      44.223  39.552  27.193  0.00  0.00    -0.113 SA
ATOM     17  C13 LG1 d5015      44.850  39.548  28.786  0.00  0.00     0.050 A 
ATOM     18  C12 LG1 d5015      44.012  38.902  29.668  0.00  0.00     0.019 A 
ENDBRANCH  13  14
TORSDOF 1
ENDMDL
